MODEL 1
REMARK VINA RESULT:      -8.5      0.000      0.000
REMARK  27 active torsions:
REMARK  status: ('A' for Active; 'I' for Inactive)
REMARK    1  A    between atoms: C1_1  and  O1_2 
REMARK    2  A    between atoms: S1_5  and  N2_7 
REMARK    3  A    between atoms: C2_6  and  N2_7 
REMARK    4  A    between atoms: S2_10  and  O6_22 
REMARK    5  A    between atoms: C3_11  and  O3_12 
REMARK    6  A    between atoms: C4_15  and  O4_16 
REMARK    7  A    between atoms: O4_16  and  C1_24 
REMARK    8  A    between atoms: C5_18  and  C6_21 
REMARK    9  A    between atoms: C6_21  and  O6_22 
REMARK   10  A    between atoms: C2_26  and  O2_27 
REMARK   11  A    between atoms: O2_27  and  S_40 
REMARK   12  A    between atoms: C3_29  and  O3_30 
REMARK   13  A    between atoms: C4_33  and  O4_34 
REMARK   14  A    between atoms: O4_34  and  C1_41 
REMARK   15  A    between atoms: C5_35  and  C6_37 
REMARK   16  A    between atoms: S1_43  and  N2_45 
REMARK   17  A    between atoms: C2_44  and  N2_45 
REMARK   18  A    between atoms: S2_48  and  O6_60 
REMARK   19  A    between atoms: C3_49  and  O3_50 
REMARK   20  A    between atoms: C4_53  and  O4_54 
REMARK   21  A    between atoms: O4_54  and  C1_62 
REMARK   22  A    between atoms: C5_56  and  C6_59 
REMARK   23  A    between atoms: C6_59  and  O6_60 
REMARK   24  A    between atoms: C2_64  and  O2_65 
REMARK   25  A    between atoms: O2_65  and  S_77 
REMARK   26  A    between atoms: C3_67  and  O3_68 
REMARK   27  A    between atoms: C5_72  and  C6_74 
ROOT
HETATM    1  C1  IDS C   2      31.624  74.861  18.788  1.00 40.81     0.294 C 
HETATM    2  C2  IDS C   2      33.135  74.909  18.548  1.00 40.20     0.231 C 
HETATM    3  C3  IDS C   2      33.675  73.529  18.181  1.00 39.01     0.185 C 
HETATM    4  C4  IDS C   2      33.407  72.512  19.309  1.00 37.65     0.195 C 
HETATM    5  C5  IDS C   2      32.262  73.012  20.199  1.00 35.99     0.257 C 
HETATM    6  O5  IDS C   2      31.228  73.603  19.377  1.00 39.00    -0.340 OA
ENDROOT
BRANCH   4   7
HETATM    7  O4  IDS C   2      33.067  71.224  18.738  1.00 35.98    -0.348 OA
BRANCH   7   8
HETATM    8  C1  SGN C   3      34.140  70.459  18.259  1.00 35.40     0.287 C 
HETATM    9  C2  SGN C   3      33.641  69.078  17.798  1.00 33.71     0.182 C 
HETATM   10  C3  SGN C   3      33.272  68.169  18.976  1.00 35.79     0.178 C 
HETATM   11  C4  SGN C   3      34.353  68.179  20.070  1.00 36.62     0.186 C 
HETATM   12  C5  SGN C   3      34.739  69.613  20.412  1.00 39.32     0.181 C 
HETATM   13  O5  SGN C   3      35.163  70.307  19.226  1.00 37.58    -0.349 OA
BRANCH   9  14
HETATM   14  N2  SGN C   3      32.477  69.242  16.954  1.00 29.28    -0.289 N 
ATOM     15  H2  SGN C   3      31.541  69.035  17.301  1.00  0.00     0.175 HD
BRANCH  14  16
HETATM   16  S1  SGN C   3      32.720  69.773  15.409  1.00 27.84     0.205 S 
HETATM   17  O1S SGN C   3      33.312  71.089  15.565  1.00 27.65    -0.578 OA
HETATM   18  O2S SGN C   3      31.361  69.821  14.794  1.00 27.72    -0.578 OA
HETATM   19  O3S SGN C   3      33.626  68.822  14.692  1.00 28.50    -0.578 OA
ENDBRANCH  14  16
ENDBRANCH   9  14
BRANCH  10  20
HETATM   20  O3  SGN C   3      33.066  66.840  18.504  1.00 34.89    -0.391 OA
ATOM     21  H3  SGN C   3      33.619  66.683  17.748  1.00  0.00     0.210 HD
ENDBRANCH  10  20
BRANCH  11  22
HETATM   22  O4  SGN C   3      33.832  67.550  21.255  1.00 37.13    -0.348 OA
BRANCH  22  23
HETATM   23  C1  UAP C   4      34.411  66.335  21.585  1.00 39.64     0.294 C 
HETATM   24  C2  UAP C   4      34.492  66.187  23.093  1.00 38.70     0.228 C 
HETATM   25  C3  UAP C   4      35.216  64.893  23.455  1.00 38.51     0.156 C 
HETATM   26  C4  UAP C   4      34.801  63.644  22.548  1.00 38.14     0.077 C 
HETATM   27  C5  UAP C   4      34.016  63.965  21.431  1.00 38.51     0.228 C 
HETATM   28  O5  UAP C   4      33.582  65.305  21.061  1.00 37.46    -0.343 OA
BRANCH  24  29
HETATM   29  O2  UAP C   4      35.263  67.292  23.666  1.00 40.54    -0.244 OA
BRANCH  29  30
HETATM   30  S   UAP C   4      34.697  68.140  24.901  1.00 40.49     0.252 S 
HETATM   31  O1S UAP C   4      33.934  69.262  24.336  1.00 40.89    -0.572 OA
HETATM   32  O2S UAP C   4      35.864  68.607  25.664  1.00 37.88    -0.572 OA
HETATM   33  O3S UAP C   4      33.846  67.237  25.691  1.00 37.47    -0.572 OA
ENDBRANCH  29  30
ENDBRANCH  24  29
BRANCH  25  34
HETATM   34  O3  UAP C   4      34.964  64.588  24.817  1.00 38.58    -0.393 OA
ATOM     35  H3  UAP C   4      34.026  64.529  24.952  1.00  0.00     0.210 HD
ENDBRANCH  25  34
BRANCH  27  36
HETATM   36  C6  UAP C   4      33.500  62.931  20.492  1.00 37.96     0.203 C 
HETATM   37  O6A UAP C   4      33.081  61.858  20.970  1.00 40.05    -0.646 OA
HETATM   38  O6B UAP C   4      33.511  63.184  19.268  1.00 36.71    -0.646 OA
ENDBRANCH  27  36
ENDBRANCH  22  23
ENDBRANCH  11  22
BRANCH  12  39
HETATM   39  C6  SGN C   3      35.852  69.730  21.415  1.00 42.65     0.227 C 
BRANCH  39  40
HETATM   40  O6  SGN C   3      36.006  71.144  21.664  1.00 51.09    -0.254 OA
BRANCH  40  41
HETATM   41  S2  SGN C   3      36.757  71.547  23.014  1.00 54.80     0.251 S 
HETATM   42  O4S SGN C   3      35.725  71.927  23.996  1.00 54.99    -0.572 OA
HETATM   43  O5S SGN C   3      37.651  72.695  22.678  1.00 53.99    -0.572 OA
HETATM   44  O6S SGN C   3      37.508  70.377  23.446  1.00 55.43    -0.572 OA
ENDBRANCH  40  41
ENDBRANCH  39  40
ENDBRANCH  12  39
ENDBRANCH   7   8
ENDBRANCH   4   7
BRANCH   3  45
HETATM   45  O3  IDS C   2      35.072  73.618  17.933  1.00 39.65    -0.390 OA
ATOM     46  H3  IDS C   2      35.436  72.744  17.859  1.00  0.00     0.210 HD
ENDBRANCH   3  45
BRANCH   5  47
HETATM   47  C6  IDS C   2      31.613  71.945  21.070  1.00 36.10     0.206 C 
HETATM   48  O6A IDS C   2      30.374  71.800  20.982  1.00 32.44    -0.646 OA
HETATM   49  O6B IDS C   2      32.349  71.257  21.818  1.00 33.44    -0.646 OA
ENDBRANCH   5  47
BRANCH   2  50
HETATM   50  O2  IDS C   2      33.430  75.821  17.451  1.00 43.59    -0.244 OA
BRANCH  50  51
HETATM   51  S   IDS C   2      34.476  77.006  17.670  1.00 44.11     0.252 S 
HETATM   52  O1S IDS C   2      35.525  76.491  18.614  1.00 44.48    -0.572 OA
HETATM   53  O2S IDS C   2      33.727  78.146  18.238  1.00 44.29    -0.572 OA
HETATM   54  O3S IDS C   2      35.032  77.323  16.367  1.00 44.74    -0.572 OA
ENDBRANCH  50  51
ENDBRANCH   2  50
BRANCH   1  55
HETATM   55  O4  SGN C   1      31.260  75.887  19.649  1.00 44.73    -0.348 OA
BRANCH  55  56
HETATM   56  C4  SGN C   1      30.126  76.701  19.279  1.00 48.25     0.186 C 
HETATM   57  C3  SGN C   1      29.973  76.715  17.753  1.00 48.43     0.178 C 
HETATM   58  C2  SGN C   1      28.688  77.444  17.361  1.00 48.58     0.181 C 
HETATM   59  C1  SGN C   1      27.473  76.872  18.089  1.00 50.40     0.283 C 
HETATM   60  O5  SGN C   1      27.691  76.895  19.505  1.00 50.82    -0.349 OA
HETATM   61  C5  SGN C   1      28.847  76.127  19.912  1.00 51.58     0.181 C 
BRANCH  57  62
HETATM   62  O3  SGN C   1      31.083  77.371  17.161  1.00 46.09    -0.391 OA
ATOM     63  H3  SGN C   1      31.426  76.833  16.457  1.00  0.00     0.210 HD
ENDBRANCH  57  62
BRANCH  58  64
HETATM   64  N2  SGN C   1      28.479  77.367  15.930  1.00 48.56    -0.289 N 
ATOM     65  H2  SGN C   1      28.339  76.483  15.441  1.00  0.00     0.175 HD
BRANCH  64  66
HETATM   66  S1  SGN C   1      28.487  78.828  15.154  1.00 47.67     0.205 S 
HETATM   67  O1S SGN C   1      29.567  79.630  15.768  1.00 47.59    -0.578 OA
HETATM   68  O2S SGN C   1      27.158  79.402  15.390  1.00 48.55    -0.578 OA
HETATM   69  O3S SGN C   1      28.737  78.546  13.723  1.00 47.08    -0.578 OA
ENDBRANCH  64  66
ENDBRANCH  58  64
BRANCH  59  70
HETATM   70  O1  SGN C   1      27.262  75.559  17.694  1.00 51.36    -0.369 OA
ATOM     71  H1  SGN C   1      27.119  75.011  18.456  1.00  0.00     0.212 HD
ENDBRANCH  59  70
BRANCH  61  72
HETATM   72  C6  SGN C   1      28.878  76.160  21.419  1.00 55.48     0.227 C 
BRANCH  72  73
HETATM   73  O6  SGN C   1      27.752  75.424  21.942  1.00 61.59    -0.254 OA
BRANCH  73  74
HETATM   74  S2  SGN C   1      27.608  75.444  23.529  1.00 65.98     0.251 S 
HETATM   75  O4S SGN C   1      27.920  74.031  24.028  1.00 65.09    -0.572 OA
HETATM   76  O5S SGN C   1      26.239  75.829  23.816  1.00 65.58    -0.572 OA
HETATM   77  O6S SGN C   1      28.632  76.491  24.071  1.00 65.84    -0.572 OA
ENDBRANCH  73  74
ENDBRANCH  72  73
ENDBRANCH  61  72
ENDBRANCH  55  56
ENDBRANCH   1  55
TORSDOF 27
ENDMDL
MODEL 2
REMARK VINA RESULT:      -7.8      1.498      3.950
REMARK  27 active torsions:
REMARK  status: ('A' for Active; 'I' for Inactive)
REMARK    1  A    between atoms: C1_1  and  O1_2 
REMARK    2  A    between atoms: S1_5  and  N2_7 
REMARK    3  A    between atoms: C2_6  and  N2_7 
REMARK    4  A    between atoms: S2_10  and  O6_22 
REMARK    5  A    between atoms: C3_11  and  O3_12 
REMARK    6  A    between atoms: C4_15  and  O4_16 
REMARK    7  A    between atoms: O4_16  and  C1_24 
REMARK    8  A    between atoms: C5_18  and  C6_21 
REMARK    9  A    between atoms: C6_21  and  O6_22 
REMARK   10  A    between atoms: C2_26  and  O2_27 
REMARK   11  A    between atoms: O2_27  and  S_40 
REMARK   12  A    between atoms: C3_29  and  O3_30 
REMARK   13  A    between atoms: C4_33  and  O4_34 
REMARK   14  A    between atoms: O4_34  and  C1_41 
REMARK   15  A    between atoms: C5_35  and  C6_37 
REMARK   16  A    between atoms: S1_43  and  N2_45 
REMARK   17  A    between atoms: C2_44  and  N2_45 
REMARK   18  A    between atoms: S2_48  and  O6_60 
REMARK   19  A    between atoms: C3_49  and  O3_50 
REMARK   20  A    between atoms: C4_53  and  O4_54 
REMARK   21  A    between atoms: O4_54  and  C1_62 
REMARK   22  A    between atoms: C5_56  and  C6_59 
REMARK   23  A    between atoms: C6_59  and  O6_60 
REMARK   24  A    between atoms: C2_64  and  O2_65 
REMARK   25  A    between atoms: O2_65  and  S_77 
REMARK   26  A    between atoms: C3_67  and  O3_68 
REMARK   27  A    between atoms: C5_72  and  C6_74 
ROOT
HETATM    1  C1  IDS C   2      32.858  74.395  17.697  1.00 40.81     0.294 C 
HETATM    2  C2  IDS C   2      34.335  74.439  18.099  1.00 40.20     0.231 C 
HETATM    3  C3  IDS C   2      34.927  73.034  18.163  1.00 39.01     0.185 C 
HETATM    4  C4  IDS C   2      34.182  72.166  19.196  1.00 37.65     0.195 C 
HETATM    5  C5  IDS C   2      32.790  72.754  19.464  1.00 35.99     0.257 C 
HETATM    6  O5  IDS C   2      32.209  73.216  18.221  1.00 39.00    -0.340 OA
ENDROOT
BRANCH   4   7
HETATM    7  O4  IDS C   2      34.059  70.809  18.701  1.00 35.98    -0.348 OA
BRANCH   7   8
HETATM    8  C1  SGN C   3      35.256  70.089  18.573  1.00 35.40     0.287 C 
HETATM    9  C2  SGN C   3      34.964  68.657  18.093  1.00 33.71     0.182 C 
HETATM   10  C3  SGN C   3      34.339  67.790  19.193  1.00 35.79     0.178 C 
HETATM   11  C4  SGN C   3      35.089  67.928  20.529  1.00 36.62     0.186 C 
HETATM   12  C5  SGN C   3      35.302  69.399  20.861  1.00 39.32     0.181 C 
HETATM   13  O5  SGN C   3      35.993  70.055  19.783  1.00 37.58    -0.349 OA
BRANCH   9  14
HETATM   14  N2  SGN C   3      34.060  68.700  16.965  1.00 29.28    -0.289 N 
ATOM     15  H2  SGN C   3      33.135  69.122  17.046  1.00  0.00     0.175 HD
BRANCH  14  16
HETATM   16  S1  SGN C   3      34.579  68.042  15.542  1.00 27.84     0.205 S 
HETATM   17  O1S SGN C   3      34.434  66.610  15.728  1.00 27.65    -0.578 OA
HETATM   18  O2S SGN C   3      36.004  68.466  15.411  1.00 27.72    -0.578 OA
HETATM   19  O3S SGN C   3      33.735  68.558  14.418  1.00 28.50    -0.578 OA
ENDBRANCH  14  16
ENDBRANCH   9  14
BRANCH  10  20
HETATM   20  O3  SGN C   3      34.329  66.427  18.776  1.00 34.89    -0.391 OA
ATOM     21  H3  SGN C   3      34.097  65.872  19.512  1.00  0.00     0.210 HD
ENDBRANCH  10  20
BRANCH  11  22
HETATM   22  O4  SGN C   3      34.303  67.331  21.576  1.00 37.13    -0.348 OA
BRANCH  22  23
HETATM   23  C1  UAP C   4      34.707  66.067  21.974  1.00 39.64     0.294 C 
HETATM   24  C2  UAP C   4      34.551  65.918  23.477  1.00 38.70     0.228 C 
HETATM   25  C3  UAP C   4      35.087  64.562  23.927  1.00 38.51     0.156 C 
HETATM   26  C4  UAP C   4      34.691  63.355  22.957  1.00 38.14     0.077 C 
HETATM   27  C5  UAP C   4      34.114  63.746  21.740  1.00 38.51     0.228 C 
HETATM   28  O5  UAP C   4      33.870  65.120  21.324  1.00 37.46    -0.343 OA
BRANCH  24  29
HETATM   29  O2  UAP C   4      35.332  66.945  24.168  1.00 40.54    -0.244 OA
BRANCH  29  30
HETATM   30  S   UAP C   4      34.655  67.903  25.258  1.00 40.49     0.252 S 
HETATM   31  O1S UAP C   4      33.749  67.066  26.059  1.00 40.89    -0.572 OA
HETATM   32  O2S UAP C   4      33.923  68.939  24.516  1.00 37.88    -0.572 OA
HETATM   33  O3S UAP C   4      35.743  68.470  26.071  1.00 37.47    -0.572 OA
ENDBRANCH  29  30
ENDBRANCH  24  29
BRANCH  25  34
HETATM   34  O3  UAP C   4      34.609  64.287  25.235  1.00 38.58    -0.393 OA
ATOM     35  H3  UAP C   4      35.030  63.500  25.559  1.00  0.00     0.210 HD
ENDBRANCH  25  34
BRANCH  27  36
HETATM   36  C6  UAP C   4      33.643  62.763  20.725  1.00 37.96     0.203 C 
HETATM   37  O6A UAP C   4      33.785  63.048  19.519  1.00 40.05    -0.646 OA
HETATM   38  O6B UAP C   4      33.126  61.699  21.127  1.00 36.71    -0.646 OA
ENDBRANCH  27  36
ENDBRANCH  22  23
ENDBRANCH  11  22
BRANCH  12  39
HETATM   39  C6  SGN C   3      36.102  69.641  22.110  1.00 42.65     0.227 C 
BRANCH  39  40
HETATM   40  O6  SGN C   3      35.937  71.043  22.415  1.00 51.09    -0.254 OA
BRANCH  40  41
HETATM   41  S2  SGN C   3      37.258  71.937  22.371  1.00 54.80     0.251 S 
HETATM   42  O4S SGN C   3      37.114  72.884  21.251  1.00 54.99    -0.572 OA
HETATM   43  O5S SGN C   3      38.401  70.999  22.161  1.00 53.99    -0.572 OA
HETATM   44  O6S SGN C   3      37.344  72.626  23.652  1.00 55.43    -0.572 OA
ENDBRANCH  40  41
ENDBRANCH  39  40
ENDBRANCH  12  39
ENDBRANCH   7   8
ENDBRANCH   4   7
BRANCH   3  45
HETATM   45  O3  IDS C   2      36.304  73.116  18.506  1.00 39.65    -0.390 OA
ATOM     46  H3  IDS C   2      36.812  73.315  17.729  1.00  0.00     0.210 HD
ENDBRANCH   3  45
BRANCH   5  47
HETATM   47  C6  IDS C   2      31.801  71.796  20.115  1.00 36.10     0.206 C 
HETATM   48  O6A IDS C   2      32.150  71.235  21.177  1.00 32.44    -0.646 OA
HETATM   49  O6B IDS C   2      30.686  71.629  19.566  1.00 33.44    -0.646 OA
ENDBRANCH   5  47
BRANCH   2  50
HETATM   50  O2  IDS C   2      35.088  75.208  17.118  1.00 43.59    -0.244 OA
BRANCH  50  51
HETATM   51  S   IDS C   2      35.829  76.549  17.566  1.00 44.11     0.252 S 
HETATM   52  O1S IDS C   2      36.861  76.847  16.516  1.00 44.48    -0.572 OA
HETATM   53  O2S IDS C   2      36.439  76.286  18.887  1.00 44.29    -0.572 OA
HETATM   54  O3S IDS C   2      34.816  77.586  17.638  1.00 44.74    -0.572 OA
ENDBRANCH  50  51
ENDBRANCH   2  50
BRANCH   1  55
HETATM   55  O4  SGN C   1      32.209  75.516  18.196  1.00 44.73    -0.348 OA
BRANCH  55  56
HETATM   56  C4  SGN C   1      30.775  75.446  18.350  1.00 48.25     0.186 C 
HETATM   57  C3  SGN C   1      30.362  76.106  19.671  1.00 48.43     0.178 C 
HETATM   58  C2  SGN C   1      28.839  76.176  19.769  1.00 48.58     0.181 C 
HETATM   59  C1  SGN C   1      28.226  76.843  18.538  1.00 50.40     0.283 C 
HETATM   60  O5  SGN C   1      28.656  76.171  17.348  1.00 50.82    -0.349 OA
HETATM   61  C5  SGN C   1      30.093  76.178  17.182  1.00 51.58     0.181 C 
BRANCH  57  62
HETATM   62  O3  SGN C   1      30.868  75.358  20.765  1.00 46.09    -0.391 OA
ATOM     63  H3  SGN C   1      30.967  75.930  21.517  1.00  0.00     0.210 HD
ENDBRANCH  57  62
BRANCH  58  64
HETATM   64  N2  SGN C   1      28.441  76.896  20.961  1.00 48.56    -0.289 N 
ATOM     65  H2  SGN C   1      28.547  77.906  21.056  1.00  0.00     0.175 HD
BRANCH  64  66
HETATM   66  S1  SGN C   1      27.802  75.948  22.157  1.00 47.67     0.205 S 
HETATM   67  O1S SGN C   1      28.373  76.430  23.433  1.00 47.59    -0.578 OA
HETATM   68  O2S SGN C   1      28.222  74.580  21.836  1.00 48.55    -0.578 OA
HETATM   69  O3S SGN C   1      26.334  76.120  22.094  1.00 47.08    -0.578 OA
ENDBRANCH  64  66
ENDBRANCH  58  64
BRANCH  59  70
HETATM   70  O1  SGN C   1      28.631  78.168  18.470  1.00 51.36    -0.369 OA
ATOM     71  H1  SGN C   1      29.360  78.252  17.867  1.00  0.00     0.212 HD
ENDBRANCH  59  70
BRANCH  61  72
HETATM   72  C6  SGN C   1      30.375  75.535  15.847  1.00 55.48     0.227 C 
BRANCH  72  73
HETATM   73  O6  SGN C   1      30.539  76.559  14.842  1.00 61.59    -0.254 OA
BRANCH  73  74
HETATM   74  S2  SGN C   1      29.528  76.469  13.614  1.00 65.98     0.251 S 
HETATM   75  O4S SGN C   1      28.204  77.087  14.073  1.00 65.09    -0.572 OA
HETATM   76  O5S SGN C   1      29.385  75.060  13.298  1.00 65.58    -0.572 OA
HETATM   77  O6S SGN C   1      30.165  77.269  12.434  1.00 65.84    -0.572 OA
ENDBRANCH  73  74
ENDBRANCH  72  73
ENDBRANCH  61  72
ENDBRANCH  55  56
ENDBRANCH   1  55
TORSDOF 27
ENDMDL
MODEL 3
REMARK VINA RESULT:      -7.8      6.523     15.863
REMARK  27 active torsions:
REMARK  status: ('A' for Active; 'I' for Inactive)
REMARK    1  A    between atoms: C1_1  and  O1_2 
REMARK    2  A    between atoms: S1_5  and  N2_7 
REMARK    3  A    between atoms: C2_6  and  N2_7 
REMARK    4  A    between atoms: S2_10  and  O6_22 
REMARK    5  A    between atoms: C3_11  and  O3_12 
REMARK    6  A    between atoms: C4_15  and  O4_16 
REMARK    7  A    between atoms: O4_16  and  C1_24 
REMARK    8  A    between atoms: C5_18  and  C6_21 
REMARK    9  A    between atoms: C6_21  and  O6_22 
REMARK   10  A    between atoms: C2_26  and  O2_27 
REMARK   11  A    between atoms: O2_27  and  S_40 
REMARK   12  A    between atoms: C3_29  and  O3_30 
REMARK   13  A    between atoms: C4_33  and  O4_34 
REMARK   14  A    between atoms: O4_34  and  C1_41 
REMARK   15  A    between atoms: C5_35  and  C6_37 
REMARK   16  A    between atoms: S1_43  and  N2_45 
REMARK   17  A    between atoms: C2_44  and  N2_45 
REMARK   18  A    between atoms: S2_48  and  O6_60 
REMARK   19  A    between atoms: C3_49  and  O3_50 
REMARK   20  A    between atoms: C4_53  and  O4_54 
REMARK   21  A    between atoms: O4_54  and  C1_62 
REMARK   22  A    between atoms: C5_56  and  C6_59 
REMARK   23  A    between atoms: C6_59  and  O6_60 
REMARK   24  A    between atoms: C2_64  and  O2_65 
REMARK   25  A    between atoms: O2_65  and  S_77 
REMARK   26  A    between atoms: C3_67  and  O3_68 
REMARK   27  A    between atoms: C5_72  and  C6_74 
ROOT
HETATM    1  C1  IDS C   2      29.217  78.527  15.713  1.00 40.81     0.294 C 
HETATM    2  C2  IDS C   2      29.349  78.565  14.189  1.00 40.20     0.231 C 
HETATM    3  C3  IDS C   2      28.518  79.699  13.595  1.00 39.01     0.185 C 
HETATM    4  C4  IDS C   2      27.024  79.525  13.935  1.00 37.65     0.195 C 
HETATM    5  C5  IDS C   2      26.870  78.612  15.158  1.00 35.99     0.257 C 
HETATM    6  O5  IDS C   2      27.893  78.928  16.132  1.00 39.00    -0.340 OA
ENDROOT
BRANCH   4   7
HETATM    7  O4  IDS C   2      26.428  80.819  14.203  1.00 35.98    -0.348 OA
BRANCH   7   8
HETATM    8  C1  SGN C   3      26.387  81.715  13.125  1.00 35.40     0.287 C 
HETATM    9  C2  SGN C   3      25.513  82.931  13.480  1.00 33.71     0.182 C 
HETATM   10  C3  SGN C   3      24.018  82.588  13.499  1.00 35.79     0.178 C 
HETATM   11  C4  SGN C   3      23.598  81.779  12.260  1.00 36.62     0.186 C 
HETATM   12  C5  SGN C   3      24.560  80.617  12.044  1.00 39.32     0.181 C 
HETATM   13  O5  SGN C   3      25.909  81.104  11.939  1.00 37.58    -0.349 OA
BRANCH   9  14
HETATM   14  N2  SGN C   3      25.891  83.434  14.782  1.00 29.28    -0.289 N 
ATOM     15  H2  SGN C   3      25.455  83.078  15.632  1.00  0.00     0.175 HD
BRANCH  14  16
HETATM   16  S1  SGN C   3      27.054  84.606  14.842  1.00 27.84     0.205 S 
HETATM   17  O1S SGN C   3      26.718  85.509  13.757  1.00 27.65    -0.578 OA
HETATM   18  O2S SGN C   3      28.344  83.889  14.617  1.00 27.72    -0.578 OA
HETATM   19  O3S SGN C   3      27.013  85.280  16.177  1.00 28.50    -0.578 OA
ENDBRANCH  14  16
ENDBRANCH   9  14
BRANCH  10  20
HETATM   20  O3  SGN C   3      23.256  83.791  13.579  1.00 34.89    -0.391 OA
ATOM     21  H3  SGN C   3      22.728  83.883  12.795  1.00  0.00     0.210 HD
ENDBRANCH  10  20
BRANCH  11  22
HETATM   22  O4  SGN C   3      22.278  81.247  12.468  1.00 37.13    -0.348 OA
BRANCH  22  23
HETATM   23  C1  UAP C   4      21.239  82.041  12.007  1.00 39.64     0.294 C 
HETATM   24  C2  UAP C   4      20.239  81.197  11.238  1.00 38.70     0.228 C 
HETATM   25  C3  UAP C   4      19.148  82.087  10.648  1.00 38.51     0.156 C 
HETATM   26  C4  UAP C   4      18.636  83.229  11.643  1.00 38.14     0.077 C 
HETATM   27  C5  UAP C   4      19.408  83.385  12.803  1.00 38.51     0.228 C 
HETATM   28  O5  UAP C   4      20.594  82.610  13.139  1.00 37.46    -0.343 OA
BRANCH  24  29
HETATM   29  O2  UAP C   4      20.903  80.524  10.120  1.00 40.54    -0.244 OA
BRANCH  29  30
HETATM   30  S   UAP C   4      20.726  78.951   9.882  1.00 40.49     0.252 S 
HETATM   31  O1S UAP C   4      21.618  78.583   8.773  1.00 40.89    -0.572 OA
HETATM   32  O2S UAP C   4      19.314  78.730   9.538  1.00 37.88    -0.572 OA
HETATM   33  O3S UAP C   4      21.101  78.279  11.136  1.00 37.47    -0.572 OA
ENDBRANCH  29  30
ENDBRANCH  24  29
BRANCH  25  34
HETATM   34  O3  UAP C   4      18.049  81.275  10.262  1.00 38.58    -0.393 OA
ATOM     35  H3  UAP C   4      18.214  80.926   9.394  1.00  0.00     0.210 HD
ENDBRANCH  25  34
BRANCH  27  36
HETATM   36  C6  UAP C   4      19.065  84.371  13.866  1.00 37.96     0.203 C 
HETATM   37  O6A UAP C   4      19.950  84.683  14.687  1.00 40.05    -0.646 OA
HETATM   38  O6B UAP C   4      17.906  84.837  13.888  1.00 36.71    -0.646 OA
ENDBRANCH  27  36
ENDBRANCH  22  23
ENDBRANCH  11  22
BRANCH  12  39
HETATM   39  C6  SGN C   3      24.284  79.810  10.806  1.00 42.65     0.227 C 
BRANCH  39  40
HETATM   40  O6  SGN C   3      25.577  79.394  10.314  1.00 51.09    -0.254 OA
BRANCH  40  41
HETATM   41  S2  SGN C   3      25.785  79.452   8.733  1.00 54.80     0.251 S 
HETATM   42  O4S SGN C   3      24.867  78.468   8.131  1.00 54.99    -0.572 OA
HETATM   43  O5S SGN C   3      27.215  79.104   8.479  1.00 53.99    -0.572 OA
HETATM   44  O6S SGN C   3      25.471  80.811   8.314  1.00 55.43    -0.572 OA
ENDBRANCH  40  41
ENDBRANCH  39  40
ENDBRANCH  12  39
ENDBRANCH   7   8
ENDBRANCH   4   7
BRANCH   3  45
HETATM   45  O3  IDS C   2      28.692  79.725  12.184  1.00 39.65    -0.390 OA
ATOM     46  H3  IDS C   2      28.206  79.010  11.792  1.00  0.00     0.210 HD
ENDBRANCH   3  45
BRANCH   5  47
HETATM   47  C6  IDS C   2      25.520  78.694  15.856  1.00 36.10     0.206 C 
HETATM   48  O6A IDS C   2      24.761  79.638  15.542  1.00 32.44    -0.646 OA
HETATM   49  O6B IDS C   2      25.228  77.809  16.695  1.00 33.44    -0.646 OA
ENDBRANCH   5  47
BRANCH   2  50
HETATM   50  O2  IDS C   2      30.743  78.781  13.823  1.00 43.59    -0.244 OA
BRANCH  50  51
HETATM   51  S   IDS C   2      31.383  77.943  12.624  1.00 44.11     0.252 S 
HETATM   52  O1S IDS C   2      30.331  76.973  12.163  1.00 44.48    -0.572 OA
HETATM   53  O2S IDS C   2      32.575  77.256  13.164  1.00 44.29    -0.572 OA
HETATM   54  O3S IDS C   2      31.734  78.894  11.585  1.00 44.74    -0.572 OA
ENDBRANCH  50  51
ENDBRANCH   2  50
BRANCH   1  55
HETATM   55  O4  SGN C   1      29.452  77.236  16.166  1.00 44.73    -0.348 OA
BRANCH  55  56
HETATM   56  C4  SGN C   1      29.822  77.069  17.552  1.00 48.25     0.186 C 
HETATM   57  C3  SGN C   1      28.717  76.311  18.297  1.00 48.43     0.178 C 
HETATM   58  C2  SGN C   1      29.167  75.994  19.723  1.00 48.58     0.181 C 
HETATM   59  C1  SGN C   1      30.515  75.275  19.739  1.00 50.40     0.283 C 
HETATM   60  O5  SGN C   1      31.493  76.044  19.027  1.00 50.82    -0.349 OA
HETATM   61  C5  SGN C   1      31.135  76.273  17.645  1.00 51.58     0.181 C 
BRANCH  57  62
HETATM   62  O3  SGN C   1      27.537  77.097  18.342  1.00 46.09    -0.391 OA
ATOM     63  H3  SGN C   1      27.228  77.251  17.457  1.00  0.00     0.210 HD
ENDBRANCH  57  62
BRANCH  58  64
HETATM   64  N2  SGN C   1      28.175  75.183  20.398  1.00 48.56    -0.289 N 
ATOM     65  H2  SGN C   1      27.699  74.404  19.944  1.00  0.00     0.175 HD
BRANCH  64  66
HETATM   66  S1  SGN C   1      27.877  75.624  21.964  1.00 47.67     0.205 S 
HETATM   67  O1S SGN C   1      28.874  76.660  22.311  1.00 47.59    -0.578 OA
HETATM   68  O2S SGN C   1      28.044  74.399  22.753  1.00 48.55    -0.578 OA
HETATM   69  O3S SGN C   1      26.491  76.139  22.003  1.00 47.08    -0.578 OA
ENDBRANCH  64  66
ENDBRANCH  58  64
BRANCH  59  70
HETATM   70  O1  SGN C   1      30.396  74.035  19.129  1.00 51.36    -0.369 OA
ATOM     71  H1  SGN C   1      30.451  73.347  19.781  1.00  0.00     0.212 HD
ENDBRANCH  59  70
BRANCH  61  72
HETATM   72  C6  SGN C   1      32.299  76.994  17.012  1.00 55.48     0.227 C 
BRANCH  72  73
HETATM   73  O6  SGN C   1      33.009  77.743  18.021  1.00 61.59    -0.254 OA
BRANCH  73  74
HETATM   74  S2  SGN C   1      34.578  77.467  18.089  1.00 65.98     0.251 S 
HETATM   75  O4S SGN C   1      35.103  77.490  16.652  1.00 65.09    -0.572 OA
HETATM   76  O5S SGN C   1      34.742  76.162  18.703  1.00 65.58    -0.572 OA
HETATM   77  O6S SGN C   1      35.207  78.601  18.957  1.00 65.84    -0.572 OA
ENDBRANCH  73  74
ENDBRANCH  72  73
ENDBRANCH  61  72
ENDBRANCH  55  56
ENDBRANCH   1  55
TORSDOF 27
ENDMDL
MODEL 4
REMARK VINA RESULT:      -7.8      2.104      3.441
REMARK  27 active torsions:
REMARK  status: ('A' for Active; 'I' for Inactive)
REMARK    1  A    between atoms: C1_1  and  O1_2 
REMARK    2  A    between atoms: S1_5  and  N2_7 
REMARK    3  A    between atoms: C2_6  and  N2_7 
REMARK    4  A    between atoms: S2_10  and  O6_22 
REMARK    5  A    between atoms: C3_11  and  O3_12 
REMARK    6  A    between atoms: C4_15  and  O4_16 
REMARK    7  A    between atoms: O4_16  and  C1_24 
REMARK    8  A    between atoms: C5_18  and  C6_21 
REMARK    9  A    between atoms: C6_21  and  O6_22 
REMARK   10  A    between atoms: C2_26  and  O2_27 
REMARK   11  A    between atoms: O2_27  and  S_40 
REMARK   12  A    between atoms: C3_29  and  O3_30 
REMARK   13  A    between atoms: C4_33  and  O4_34 
REMARK   14  A    between atoms: O4_34  and  C1_41 
REMARK   15  A    between atoms: C5_35  and  C6_37 
REMARK   16  A    between atoms: S1_43  and  N2_45 
REMARK   17  A    between atoms: C2_44  and  N2_45 
REMARK   18  A    between atoms: S2_48  and  O6_60 
REMARK   19  A    between atoms: C3_49  and  O3_50 
REMARK   20  A    between atoms: C4_53  and  O4_54 
REMARK   21  A    between atoms: O4_54  and  C1_62 
REMARK   22  A    between atoms: C5_56  and  C6_59 
REMARK   23  A    between atoms: C6_59  and  O6_60 
REMARK   24  A    between atoms: C2_64  and  O2_65 
REMARK   25  A    between atoms: O2_65  and  S_77 
REMARK   26  A    between atoms: C3_67  and  O3_68 
REMARK   27  A    between atoms: C5_72  and  C6_74 
ROOT
HETATM    1  C1  IDS C   2      32.150  74.930  18.005  1.00 40.81     0.294 C 
HETATM    2  C2  IDS C   2      33.482  75.126  18.733  1.00 40.20     0.231 C 
HETATM    3  C3  IDS C   2      34.206  73.796  18.918  1.00 39.01     0.185 C 
HETATM    4  C4  IDS C   2      33.355  72.813  19.748  1.00 37.65     0.195 C 
HETATM    5  C5  IDS C   2      31.880  73.231  19.697  1.00 35.99     0.257 C 
HETATM    6  O5  IDS C   2      31.543  73.667  18.358  1.00 39.00    -0.340 OA
ENDROOT
BRANCH   4   7
HETATM    7  O4  IDS C   2      33.508  71.469  19.227  1.00 35.98    -0.348 OA
BRANCH   7   8
HETATM    8  C1  SGN C   3      34.821  70.983  19.151  1.00 35.40     0.287 C 
HETATM    9  C2  SGN C   3      34.811  69.470  18.870  1.00 33.71     0.182 C 
HETATM   10  C3  SGN C   3      34.377  68.654  20.093  1.00 35.79     0.178 C 
HETATM   11  C4  SGN C   3      35.097  69.109  21.373  1.00 36.62     0.186 C 
HETATM   12  C5  SGN C   3      35.021  70.625  21.506  1.00 39.32     0.181 C 
HETATM   13  O5  SGN C   3      35.561  71.252  20.329  1.00 37.58    -0.349 OA
BRANCH   9  14
HETATM   14  N2  SGN C   3      33.906  69.189  17.777  1.00 29.28    -0.289 N 
ATOM     15  H2  SGN C   3      32.945  69.529  17.787  1.00  0.00     0.175 HD
BRANCH  14  16
HETATM   16  S1  SGN C   3      34.485  68.296  16.514  1.00 27.84     0.205 S 
HETATM   17  O1S SGN C   3      34.146  66.926  16.850  1.00 27.65    -0.578 OA
HETATM   18  O2S SGN C   3      35.958  68.540  16.504  1.00 27.72    -0.578 OA
HETATM   19  O3S SGN C   3      33.833  68.750  15.245  1.00 28.50    -0.578 OA
ENDBRANCH  14  16
ENDBRANCH   9  14
BRANCH  10  20
HETATM   20  O3  SGN C   3      34.630  67.271  19.855  1.00 34.89    -0.391 OA
ATOM     21  H3  SGN C   3      33.818  66.836  19.621  1.00  0.00     0.210 HD
ENDBRANCH  10  20
BRANCH  11  22
HETATM   22  O4  SGN C   3      34.452  68.517  22.515  1.00 37.13    -0.348 OA
BRANCH  22  23
HETATM   23  C1  UAP C   4      35.261  67.713  23.303  1.00 39.64     0.294 C 
HETATM   24  C2  UAP C   4      35.164  66.268  22.846  1.00 38.70     0.228 C 
HETATM   25  C3  UAP C   4      35.978  65.370  23.773  1.00 38.51     0.156 C 
HETATM   26  C4  UAP C   4      37.392  65.986  24.193  1.00 38.14     0.077 C 
HETATM   27  C5  UAP C   4      37.576  67.330  23.838  1.00 38.51     0.228 C 
HETATM   28  O5  UAP C   4      36.601  68.161  23.147  1.00 37.46    -0.343 OA
BRANCH  24  29
HETATM   29  O2  UAP C   4      33.774  65.813  22.908  1.00 40.54    -0.244 OA
BRANCH  29  30
HETATM   30  S   UAP C   4      33.230  64.685  21.911  1.00 40.49     0.252 S 
HETATM   31  O1S UAP C   4      33.098  63.448  22.695  1.00 40.89    -0.572 OA
HETATM   32  O2S UAP C   4      34.230  64.545  20.842  1.00 37.88    -0.572 OA
HETATM   33  O3S UAP C   4      31.933  65.151  21.396  1.00 37.47    -0.572 OA
ENDBRANCH  29  30
ENDBRANCH  24  29
BRANCH  25  34
HETATM   34  O3  UAP C   4      36.181  64.117  23.141  1.00 38.58    -0.393 OA
ATOM     35  H3  UAP C   4      35.957  64.195  22.221  1.00  0.00     0.210 HD
ENDBRANCH  25  34
BRANCH  27  36
HETATM   36  C6  UAP C   4      38.843  68.063  24.110  1.00 37.96     0.203 C 
HETATM   37  O6A UAP C   4      38.823  68.982  24.953  1.00 40.05    -0.646 OA
HETATM   38  O6B UAP C   4      39.868  67.727  23.479  1.00 36.71    -0.646 OA
ENDBRANCH  27  36
ENDBRANCH  22  23
ENDBRANCH  11  22
BRANCH  12  39
HETATM   39  C6  SGN C   3      35.769  71.180  22.686  1.00 42.65     0.227 C 
BRANCH  39  40
HETATM   40  O6  SGN C   3      36.444  72.361  22.199  1.00 51.09    -0.254 OA
BRANCH  40  41
HETATM   41  S2  SGN C   3      38.024  72.415  22.421  1.00 54.80     0.251 S 
HETATM   42  O4S SGN C   3      38.268  73.119  23.693  1.00 54.99    -0.572 OA
HETATM   43  O5S SGN C   3      38.592  73.159  21.258  1.00 53.99    -0.572 OA
HETATM   44  O6S SGN C   3      38.492  71.036  22.469  1.00 55.43    -0.572 OA
ENDBRANCH  40  41
ENDBRANCH  39  40
ENDBRANCH  12  39
ENDBRANCH   7   8
ENDBRANCH   4   7
BRANCH   3  45
HETATM   45  O3  IDS C   2      35.451  74.020  19.566  1.00 39.65    -0.390 OA
ATOM     46  H3  IDS C   2      35.298  74.292  20.462  1.00  0.00     0.210 HD
ENDBRANCH   3  45
BRANCH   5  47
HETATM   47  C6  IDS C   2      30.890  72.146  20.098  1.00 36.10     0.206 C 
HETATM   48  O6A IDS C   2      30.532  72.100  21.295  1.00 32.44    -0.646 OA
HETATM   49  O6B IDS C   2      30.471  71.365  19.210  1.00 33.44    -0.646 OA
ENDBRANCH   5  47
BRANCH   2  50
HETATM   50  O2  IDS C   2      34.341  76.009  17.955  1.00 43.59    -0.244 OA
BRANCH  50  51
HETATM   51  S   IDS C   2      34.915  77.340  18.622  1.00 44.11     0.252 S 
HETATM   52  O1S IDS C   2      36.282  77.564  18.039  1.00 44.48    -0.572 OA
HETATM   53  O2S IDS C   2      34.964  77.108  20.081  1.00 44.29    -0.572 OA
HETATM   54  O3S IDS C   2      33.999  78.413  18.278  1.00 44.74    -0.572 OA
ENDBRANCH  50  51
ENDBRANCH   2  50
BRANCH   1  55
HETATM   55  O4  SGN C   1      31.278  75.952  18.352  1.00 44.73    -0.348 OA
BRANCH  55  56
HETATM   56  C4  SGN C   1      30.562  76.613  17.286  1.00 48.25     0.186 C 
HETATM   57  C3  SGN C   1      31.357  76.500  15.979  1.00 48.43     0.178 C 
HETATM   58  C2  SGN C   1      30.539  77.060  14.817  1.00 48.58     0.181 C 
HETATM   59  C1  SGN C   1      29.155  76.417  14.744  1.00 50.40     0.283 C 
HETATM   60  O5  SGN C   1      28.476  76.565  15.997  1.00 50.82    -0.349 OA
HETATM   61  C5  SGN C   1      29.185  75.955  17.100  1.00 51.58     0.181 C 
BRANCH  57  62
HETATM   62  O3  SGN C   1      32.572  77.225  16.088  1.00 46.09    -0.391 OA
ATOM     63  H3  SGN C   1      32.875  77.196  16.989  1.00  0.00     0.210 HD
ENDBRANCH  57  62
BRANCH  58  64
HETATM   64  N2  SGN C   1      31.236  76.857  13.563  1.00 48.56    -0.289 N 
ATOM     65  H2  SGN C   1      31.528  75.935  13.238  1.00  0.00     0.175 HD
BRANCH  64  66
HETATM   66  S1  SGN C   1      31.520  78.241  12.703  1.00 47.67     0.205 S 
HETATM   67  O1S SGN C   1      32.045  79.238  13.661  1.00 47.59    -0.578 OA
HETATM   68  O2S SGN C   1      30.219  78.629  12.148  1.00 48.55    -0.578 OA
HETATM   69  O3S SGN C   1      32.504  77.893  11.654  1.00 47.08    -0.578 OA
ENDBRANCH  64  66
ENDBRANCH  58  64
BRANCH  59  70
HETATM   70  O1  SGN C   1      29.277  75.064  14.463  1.00 51.36    -0.369 OA
ATOM     71  H1  SGN C   1      28.418  74.684  14.323  1.00  0.00     0.212 HD
ENDBRANCH  59  70
BRANCH  61  72
HETATM   72  C6  SGN C   1      28.302  76.101  18.314  1.00 55.48     0.227 C 
BRANCH  72  73
HETATM   73  O6  SGN C   1      28.949  76.954  19.282  1.00 61.59    -0.254 OA
BRANCH  73  74
HETATM   74  S2  SGN C   1      28.872  76.446  20.790  1.00 65.98     0.251 S 
HETATM   75  O4S SGN C   1      27.644  77.102  21.426  1.00 65.09    -0.572 OA
HETATM   76  O5S SGN C   1      30.103  76.867  21.433  1.00 65.58    -0.572 OA
HETATM   77  O6S SGN C   1      28.743  74.891  20.746  1.00 65.84    -0.572 OA
ENDBRANCH  73  74
ENDBRANCH  72  73
ENDBRANCH  61  72
ENDBRANCH  55  56
ENDBRANCH   1  55
TORSDOF 27
ENDMDL
MODEL 5
REMARK VINA RESULT:      -7.7      6.870     16.629
REMARK  27 active torsions:
REMARK  status: ('A' for Active; 'I' for Inactive)
REMARK    1  A    between atoms: C1_1  and  O1_2 
REMARK    2  A    between atoms: S1_5  and  N2_7 
REMARK    3  A    between atoms: C2_6  and  N2_7 
REMARK    4  A    between atoms: S2_10  and  O6_22 
REMARK    5  A    between atoms: C3_11  and  O3_12 
REMARK    6  A    between atoms: C4_15  and  O4_16 
REMARK    7  A    between atoms: O4_16  and  C1_24 
REMARK    8  A    between atoms: C5_18  and  C6_21 
REMARK    9  A    between atoms: C6_21  and  O6_22 
REMARK   10  A    between atoms: C2_26  and  O2_27 
REMARK   11  A    between atoms: O2_27  and  S_40 
REMARK   12  A    between atoms: C3_29  and  O3_30 
REMARK   13  A    between atoms: C4_33  and  O4_34 
REMARK   14  A    between atoms: O4_34  and  C1_41 
REMARK   15  A    between atoms: C5_35  and  C6_37 
REMARK   16  A    between atoms: S1_43  and  N2_45 
REMARK   17  A    between atoms: C2_44  and  N2_45 
REMARK   18  A    between atoms: S2_48  and  O6_60 
REMARK   19  A    between atoms: C3_49  and  O3_50 
REMARK   20  A    between atoms: C4_53  and  O4_54 
REMARK   21  A    between atoms: O4_54  and  C1_62 
REMARK   22  A    between atoms: C5_56  and  C6_59 
REMARK   23  A    between atoms: C6_59  and  O6_60 
REMARK   24  A    between atoms: C2_64  and  O2_65 
REMARK   25  A    between atoms: O2_65  and  S_77 
REMARK   26  A    between atoms: C3_67  and  O3_68 
REMARK   27  A    between atoms: C5_72  and  C6_74 
ROOT
HETATM    1  C1  IDS C   2      28.640  78.960  15.112  1.00 40.81     0.294 C 
HETATM    2  C2  IDS C   2      28.672  79.047  13.584  1.00 40.20     0.231 C 
HETATM    3  C3  IDS C   2      27.837  80.223  13.085  1.00 39.01     0.185 C 
HETATM    4  C4  IDS C   2      26.365  80.079  13.519  1.00 37.65     0.195 C 
HETATM    5  C5  IDS C   2      26.266  79.129  14.719  1.00 35.99     0.257 C 
HETATM    6  O5  IDS C   2      27.361  79.382  15.632  1.00 39.00    -0.340 OA
ENDROOT
BRANCH   4   7
HETATM    7  O4  IDS C   2      25.827  81.379  13.870  1.00 35.98    -0.348 OA
BRANCH   7   8
HETATM    8  C1  SGN C   3      25.921  82.371  12.883  1.00 35.40     0.287 C 
HETATM    9  C2  SGN C   3      25.217  83.655  13.356  1.00 33.71     0.182 C 
HETATM   10  C3  SGN C   3      23.689  83.520  13.342  1.00 35.79     0.178 C 
HETATM   11  C4  SGN C   3      23.179  82.899  12.030  1.00 36.62     0.186 C 
HETATM   12  C5  SGN C   3      23.976  81.643  11.701  1.00 39.32     0.181 C 
HETATM   13  O5  SGN C   3      25.381  81.949  11.644  1.00 37.58    -0.349 OA
BRANCH   9  14
HETATM   14  N2  SGN C   3      25.643  83.974  14.700  1.00 29.28    -0.289 N 
ATOM     15  H2  SGN C   3      25.079  83.713  15.509  1.00  0.00     0.175 HD
BRANCH  14  16
HETATM   16  S1  SGN C   3      27.076  84.777  14.879  1.00 27.84     0.205 S 
HETATM   17  O1S SGN C   3      28.091  83.768  14.642  1.00 27.65    -0.578 OA
HETATM   18  O2S SGN C   3      27.074  85.272  16.288  1.00 27.72    -0.578 OA
HETATM   19  O3S SGN C   3      27.145  85.899  13.891  1.00 28.50    -0.578 OA
ENDBRANCH  14  16
ENDBRANCH   9  14
BRANCH  10  20
HETATM   20  O3  SGN C   3      23.097  84.802  13.539  1.00 34.89    -0.391 OA
ATOM     21  H3  SGN C   3      23.487  85.427  12.938  1.00  0.00     0.210 HD
ENDBRANCH  10  20
BRANCH  11  22
HETATM   22  O4  SGN C   3      21.796  82.536  12.186  1.00 37.13    -0.348 OA
BRANCH  22  23
HETATM   23  C1  UAP C   4      20.884  83.421  11.633  1.00 39.64     0.294 C 
HETATM   24  C2  UAP C   4      19.659  82.670  11.142  1.00 38.70     0.228 C 
HETATM   25  C3  UAP C   4      18.700  83.632  10.447  1.00 38.51     0.156 C 
HETATM   26  C4  UAP C   4      18.534  85.035  11.196  1.00 38.14     0.077 C 
HETATM   27  C5  UAP C   4      19.448  85.256  12.236  1.00 38.51     0.228 C 
HETATM   28  O5  UAP C   4      20.493  84.332  12.652  1.00 37.46    -0.343 OA
BRANCH  24  29
HETATM   29  O2  UAP C   4      20.050  81.659  10.158  1.00 40.54    -0.244 OA
BRANCH  29  30
HETATM   30  S   UAP C   4      19.547  80.145  10.287  1.00 40.49     0.252 S 
HETATM   31  O1S UAP C   4      18.096  80.154  10.052  1.00 40.89    -0.572 OA
HETATM   32  O2S UAP C   4      19.873  79.704  11.652  1.00 37.88    -0.572 OA
HETATM   33  O3S UAP C   4      20.265  79.362   9.269  1.00 37.47    -0.572 OA
ENDBRANCH  29  30
ENDBRANCH  24  29
BRANCH  25  34
HETATM   34  O3  UAP C   4      17.430  83.011  10.327  1.00 38.58    -0.393 OA
ATOM     35  H3  UAP C   4      16.923  83.192  11.110  1.00  0.00     0.210 HD
ENDBRANCH  25  34
BRANCH  27  36
HETATM   36  C6  UAP C   4      19.423  86.487  13.074  1.00 37.96     0.203 C 
HETATM   37  O6A UAP C   4      20.353  86.665  13.886  1.00 40.05    -0.646 OA
HETATM   38  O6B UAP C   4      18.472  87.284  12.928  1.00 36.71    -0.646 OA
ENDBRANCH  27  36
ENDBRANCH  22  23
ENDBRANCH  11  22
BRANCH  12  39
HETATM   39  C6  SGN C   3      23.609  81.005  10.390  1.00 42.65     0.227 C 
BRANCH  39  40
HETATM   40  O6  SGN C   3      23.172  79.668  10.716  1.00 51.09    -0.254 OA
BRANCH  40  41
HETATM   41  S2  SGN C   3      24.197  78.489  10.391  1.00 54.80     0.251 S 
HETATM   42  O4S SGN C   3      23.585  77.647   9.346  1.00 54.99    -0.572 OA
HETATM   43  O5S SGN C   3      24.397  77.734  11.664  1.00 53.99    -0.572 OA
HETATM   44  O6S SGN C   3      25.428  79.115   9.927  1.00 55.43    -0.572 OA
ENDBRANCH  40  41
ENDBRANCH  39  40
ENDBRANCH  12  39
ENDBRANCH   7   8
ENDBRANCH   4   7
BRANCH   3  45
HETATM   45  O3  IDS C   2      27.917  80.293  11.668  1.00 39.65    -0.390 OA
ATOM     46  H3  IDS C   2      28.816  80.457  11.409  1.00  0.00     0.210 HD
ENDBRANCH   3  45
BRANCH   5  47
HETATM   47  C6  IDS C   2      24.968  79.223  15.509  1.00 36.10     0.206 C 
HETATM   48  O6A IDS C   2      24.874  78.543  16.555  1.00 32.44    -0.646 OA
HETATM   49  O6B IDS C   2      24.067  79.986  15.085  1.00 33.44    -0.646 OA
ENDBRANCH   5  47
BRANCH   2  50
HETATM   50  O2  IDS C   2      30.044  79.238  13.132  1.00 43.59    -0.244 OA
BRANCH  50  51
HETATM   51  S   IDS C   2      30.698  78.182  12.129  1.00 44.11     0.252 S 
HETATM   52  O1S IDS C   2      30.258  78.569  10.745  1.00 44.48    -0.572 OA
HETATM   53  O2S IDS C   2      30.198  76.847  12.519  1.00 44.29    -0.572 OA
HETATM   54  O3S IDS C   2      32.137  78.285  12.287  1.00 44.74    -0.572 OA
ENDBRANCH  50  51
ENDBRANCH   2  50
BRANCH   1  55
HETATM   55  O4  SGN C   1      28.867  77.648  15.506  1.00 44.73    -0.348 OA
BRANCH  55  56
HETATM   56  C4  SGN C   1      29.512  77.433  16.780  1.00 48.25     0.186 C 
HETATM   57  C3  SGN C   1      28.605  76.592  17.686  1.00 48.43     0.178 C 
HETATM   58  C2  SGN C   1      29.341  76.229  18.974  1.00 48.58     0.181 C 
HETATM   59  C1  SGN C   1      30.689  75.570  18.684  1.00 50.40     0.283 C 
HETATM   60  O5  SGN C   1      31.478  76.414  17.837  1.00 50.82    -0.349 OA
HETATM   61  C5  SGN C   1      30.843  76.692  16.567  1.00 51.58     0.181 C 
BRANCH  57  62
HETATM   62  O3  SGN C   1      27.432  77.323  18.007  1.00 46.09    -0.391 OA
ATOM     63  H3  SGN C   1      26.683  76.738  17.990  1.00  0.00     0.210 HD
ENDBRANCH  57  62
BRANCH  58  64
HETATM   64  N2  SGN C   1      28.532  75.344  19.787  1.00 48.56    -0.289 N 
ATOM     65  H2  SGN C   1      28.217  74.431  19.461  1.00  0.00     0.175 HD
BRANCH  64  66
HETATM   66  S1  SGN C   1      28.160  75.936  21.287  1.00 47.67     0.205 S 
HETATM   67  O1S SGN C   1      26.991  76.826  21.114  1.00 47.59    -0.578 OA
HETATM   68  O2S SGN C   1      29.356  76.661  21.728  1.00 48.55    -0.578 OA
HETATM   69  O3S SGN C   1      27.858  74.767  22.140  1.00 47.08    -0.578 OA
ENDBRANCH  64  66
ENDBRANCH  58  64
BRANCH  59  70
HETATM   70  O1  SGN C   1      30.492  74.356  18.042  1.00 51.36    -0.369 OA
ATOM     71  H1  SGN C   1      29.845  73.844  18.512  1.00  0.00     0.212 HD
ENDBRANCH  59  70
BRANCH  61  72
HETATM   72  C6  SGN C   1      31.832  77.492  15.756  1.00 55.48     0.227 C 
BRANCH  72  73
HETATM   73  O6  SGN C   1      33.160  77.299  16.288  1.00 61.59    -0.254 OA
BRANCH  73  74
HETATM   74  S2  SGN C   1      34.194  76.609  15.290  1.00 65.98     0.251 S 
HETATM   75  O4S SGN C   1      35.064  75.665  16.124  1.00 65.09    -0.572 OA
HETATM   76  O5S SGN C   1      34.974  77.680  14.697  1.00 65.58    -0.572 OA
HETATM   77  O6S SGN C   1      33.358  75.838  14.221  1.00 65.84    -0.572 OA
ENDBRANCH  73  74
ENDBRANCH  72  73
ENDBRANCH  61  72
ENDBRANCH  55  56
ENDBRANCH   1  55
TORSDOF 27
ENDMDL
MODEL 6
REMARK VINA RESULT:      -7.6      1.666      4.007
REMARK  27 active torsions:
REMARK  status: ('A' for Active; 'I' for Inactive)
REMARK    1  A    between atoms: C1_1  and  O1_2 
REMARK    2  A    between atoms: S1_5  and  N2_7 
REMARK    3  A    between atoms: C2_6  and  N2_7 
REMARK    4  A    between atoms: S2_10  and  O6_22 
REMARK    5  A    between atoms: C3_11  and  O3_12 
REMARK    6  A    between atoms: C4_15  and  O4_16 
REMARK    7  A    between atoms: O4_16  and  C1_24 
REMARK    8  A    between atoms: C5_18  and  C6_21 
REMARK    9  A    between atoms: C6_21  and  O6_22 
REMARK   10  A    between atoms: C2_26  and  O2_27 
REMARK   11  A    between atoms: O2_27  and  S_40 
REMARK   12  A    between atoms: C3_29  and  O3_30 
REMARK   13  A    between atoms: C4_33  and  O4_34 
REMARK   14  A    between atoms: O4_34  and  C1_41 
REMARK   15  A    between atoms: C5_35  and  C6_37 
REMARK   16  A    between atoms: S1_43  and  N2_45 
REMARK   17  A    between atoms: C2_44  and  N2_45 
REMARK   18  A    between atoms: S2_48  and  O6_60 
REMARK   19  A    between atoms: C3_49  and  O3_50 
REMARK   20  A    between atoms: C4_53  and  O4_54 
REMARK   21  A    between atoms: O4_54  and  C1_62 
REMARK   22  A    between atoms: C5_56  and  C6_59 
REMARK   23  A    between atoms: C6_59  and  O6_60 
REMARK   24  A    between atoms: C2_64  and  O2_65 
REMARK   25  A    between atoms: O2_65  and  S_77 
REMARK   26  A    between atoms: C3_67  and  O3_68 
REMARK   27  A    between atoms: C5_72  and  C6_74 
ROOT
HETATM    1  C1  IDS C   2      31.549  73.780  17.393  1.00 40.81     0.294 C 
HETATM    2  C2  IDS C   2      32.752  73.720  16.448  1.00 40.20     0.231 C 
HETATM    3  C3  IDS C   2      33.521  72.414  16.622  1.00 39.01     0.185 C 
HETATM    4  C4  IDS C   2      34.046  72.269  18.065  1.00 37.65     0.195 C 
HETATM    5  C5  IDS C   2      33.234  73.167  19.007  1.00 35.99     0.257 C 
HETATM    6  O5  IDS C   2      31.833  73.114  18.643  1.00 39.00    -0.340 OA
ENDROOT
BRANCH   4   7
HETATM    7  O4  IDS C   2      33.945  70.886  18.488  1.00 35.98    -0.348 OA
BRANCH   7   8
HETATM    8  C1  SGN C   3      35.066  70.082  18.238  1.00 35.40     0.287 C 
HETATM    9  C2  SGN C   3      34.621  68.676  17.796  1.00 33.71     0.182 C 
HETATM   10  C3  SGN C   3      34.053  67.853  18.958  1.00 35.79     0.178 C 
HETATM   11  C4  SGN C   3      34.946  67.930  20.208  1.00 36.62     0.186 C 
HETATM   12  C5  SGN C   3      35.299  69.380  20.511  1.00 39.32     0.181 C 
HETATM   13  O5  SGN C   3      35.920  69.988  19.364  1.00 37.58    -0.349 OA
BRANCH   9  14
HETATM   14  N2  SGN C   3      33.610  68.790  16.769  1.00 29.28    -0.289 N 
ATOM     15  H2  SGN C   3      32.620  68.846  17.006  1.00  0.00     0.175 HD
BRANCH  14  16
HETATM   16  S1  SGN C   3      34.115  68.826  15.197  1.00 27.84     0.205 S 
HETATM   17  O1S SGN C   3      33.029  69.465  14.479  1.00 27.65    -0.578 OA
HETATM   18  O2S SGN C   3      34.299  67.395  14.811  1.00 27.72    -0.578 OA
HETATM   19  O3S SGN C   3      35.393  69.600  15.103  1.00 28.50    -0.578 OA
ENDBRANCH  14  16
ENDBRANCH   9  14
BRANCH  10  20
HETATM   20  O3  SGN C   3      33.899  66.496  18.549  1.00 34.89    -0.391 OA
ATOM     21  H3  SGN C   3      33.391  66.462  17.747  1.00  0.00     0.210 HD
ENDBRANCH  10  20
BRANCH  11  22
HETATM   22  O4  SGN C   3      34.232  67.388  21.334  1.00 37.13    -0.348 OA
BRANCH  22  23
HETATM   23  C1  UAP C   4      34.657  66.140  21.761  1.00 39.64     0.294 C 
HETATM   24  C2  UAP C   4      34.544  66.039  23.272  1.00 38.70     0.228 C 
HETATM   25  C3  UAP C   4      35.103  64.702  23.750  1.00 38.51     0.156 C 
HETATM   26  C4  UAP C   4      34.691  63.461  22.830  1.00 38.14     0.077 C 
HETATM   27  C5  UAP C   4      34.078  63.808  21.617  1.00 38.51     0.228 C 
HETATM   28  O5  UAP C   4      33.811  65.166  21.165  1.00 37.46    -0.343 OA
BRANCH  24  29
HETATM   29  O2  UAP C   4      35.335  67.094  23.907  1.00 40.54    -0.244 OA
BRANCH  29  30
HETATM   30  S   UAP C   4      34.700  68.034  25.037  1.00 40.49     0.252 S 
HETATM   31  O1S UAP C   4      33.882  67.171  25.902  1.00 40.89    -0.572 OA
HETATM   32  O2S UAP C   4      33.881  69.038  24.342  1.00 37.88    -0.572 OA
HETATM   33  O3S UAP C   4      35.820  68.645  25.770  1.00 37.47    -0.572 OA
ENDBRANCH  29  30
ENDBRANCH  24  29
BRANCH  25  34
HETATM   34  O3  UAP C   4      34.663  64.466  25.078  1.00 38.58    -0.393 OA
ATOM     35  H3  UAP C   4      33.961  63.827  25.063  1.00  0.00     0.210 HD
ENDBRANCH  25  34
BRANCH  27  36
HETATM   36  C6  UAP C   4      33.588  62.789  20.648  1.00 37.96     0.203 C 
HETATM   37  O6A UAP C   4      33.715  63.027  19.430  1.00 40.05    -0.646 OA
HETATM   38  O6B UAP C   4      33.071  61.745  21.098  1.00 36.71    -0.646 OA
ENDBRANCH  27  36
ENDBRANCH  22  23
ENDBRANCH  11  22
BRANCH  12  39
HETATM   39  C6  SGN C   3      36.241  69.558  21.669  1.00 42.65     0.227 C 
BRANCH  39  40
HETATM   40  O6  SGN C   3      35.714  70.662  22.436  1.00 51.09    -0.254 OA
BRANCH  40  41
HETATM   41  S2  SGN C   3      36.759  71.459  23.341  1.00 54.80     0.251 S 
HETATM   42  O4S SGN C   3      37.750  70.484  23.833  1.00 54.99    -0.572 OA
HETATM   43  O5S SGN C   3      35.979  72.068  24.458  1.00 53.99    -0.572 OA
HETATM   44  O6S SGN C   3      37.373  72.468  22.488  1.00 55.43    -0.572 OA
ENDBRANCH  40  41
ENDBRANCH  39  40
ENDBRANCH  12  39
ENDBRANCH   7   8
ENDBRANCH   4   7
BRANCH   3  45
HETATM   45  O3  IDS C   2      34.609  72.379  15.708  1.00 39.65    -0.390 OA
ATOM     46  H3  IDS C   2      34.635  71.532  15.279  1.00  0.00     0.210 HD
ENDBRANCH   3  45
BRANCH   5  47
HETATM   47  C6  IDS C   2      33.345  72.816  20.485  1.00 36.10     0.206 C 
HETATM   48  O6A IDS C   2      34.377  73.181  21.091  1.00 32.44    -0.646 OA
HETATM   49  O6B IDS C   2      32.397  72.196  21.023  1.00 33.44    -0.646 OA
ENDBRANCH   5  47
BRANCH   2  50
HETATM   50  O2  IDS C   2      32.296  73.801  15.067  1.00 43.59    -0.244 OA
BRANCH  50  51
HETATM   51  S   IDS C   2      32.791  75.004  14.141  1.00 44.11     0.252 S 
HETATM   52  O1S IDS C   2      31.765  75.168  13.056  1.00 44.48    -0.572 OA
HETATM   53  O2S IDS C   2      34.114  74.621  13.604  1.00 44.29    -0.572 OA
HETATM   54  O3S IDS C   2      32.874  76.180  14.988  1.00 44.74    -0.572 OA
ENDBRANCH  50  51
ENDBRANCH   2  50
BRANCH   1  55
HETATM   55  O4  SGN C   1      31.234  75.105  17.659  1.00 44.73    -0.348 OA
BRANCH  55  56
HETATM   56  C4  SGN C   1      29.905  75.393  18.147  1.00 48.25     0.186 C 
HETATM   57  C3  SGN C   1      29.968  75.754  19.637  1.00 48.43     0.178 C 
HETATM   58  C2  SGN C   1      28.593  76.210  20.124  1.00 48.58     0.181 C 
HETATM   59  C1  SGN C   1      28.030  77.329  19.250  1.00 50.40     0.283 C 
HETATM   60  O5  SGN C   1      28.002  76.917  17.878  1.00 50.82    -0.349 OA
HETATM   61  C5  SGN C   1      29.310  76.574  17.363  1.00 51.58     0.181 C 
BRANCH  57  62
HETATM   62  O3  SGN C   1      30.381  74.626  20.391  1.00 46.09    -0.391 OA
ATOM     63  H3  SGN C   1      31.329  74.624  20.459  1.00  0.00     0.210 HD
ENDBRANCH  57  62
BRANCH  58  64
HETATM   64  N2  SGN C   1      28.666  76.657  21.499  1.00 48.56    -0.289 N 
ATOM     65  H2  SGN C   1      29.231  77.455  21.790  1.00  0.00     0.175 HD
BRANCH  64  66
HETATM   66  S1  SGN C   1      27.761  75.768  22.561  1.00 47.67     0.205 S 
HETATM   67  O1S SGN C   1      26.342  76.043  22.244  1.00 47.59    -0.578 OA
HETATM   68  O2S SGN C   1      28.140  76.247  23.894  1.00 48.55    -0.578 OA
HETATM   69  O3S SGN C   1      28.123  74.351  22.343  1.00 47.08    -0.578 OA
ENDBRANCH  64  66
ENDBRANCH  58  64
BRANCH  59  70
HETATM   70  O1  SGN C   1      28.829  78.458  19.357  1.00 51.36    -0.369 OA
ATOM     71  H1  SGN C   1      28.970  78.668  20.272  1.00  0.00     0.212 HD
ENDBRANCH  59  70
BRANCH  61  72
HETATM   72  C6  SGN C   1      29.130  76.268  15.897  1.00 55.48     0.227 C 
BRANCH  72  73
HETATM   73  O6  SGN C   1      27.776  76.577  15.502  1.00 61.59    -0.254 OA
BRANCH  73  74
HETATM   74  S2  SGN C   1      27.621  77.854  14.562  1.00 65.98     0.251 S 
HETATM   75  O4S SGN C   1      27.571  79.083  15.473  1.00 65.09    -0.572 OA
HETATM   76  O5S SGN C   1      26.382  77.678  13.826  1.00 65.58    -0.572 OA
HETATM   77  O6S SGN C   1      28.861  77.882  13.614  1.00 65.84    -0.572 OA
ENDBRANCH  73  74
ENDBRANCH  72  73
ENDBRANCH  61  72
ENDBRANCH  55  56
ENDBRANCH   1  55
TORSDOF 27
ENDMDL
MODEL 7
REMARK VINA RESULT:      -7.5      2.989     11.436
REMARK  27 active torsions:
REMARK  status: ('A' for Active; 'I' for Inactive)
REMARK    1  A    between atoms: C1_1  and  O1_2 
REMARK    2  A    between atoms: S1_5  and  N2_7 
REMARK    3  A    between atoms: C2_6  and  N2_7 
REMARK    4  A    between atoms: S2_10  and  O6_22 
REMARK    5  A    between atoms: C3_11  and  O3_12 
REMARK    6  A    between atoms: C4_15  and  O4_16 
REMARK    7  A    between atoms: O4_16  and  C1_24 
REMARK    8  A    between atoms: C5_18  and  C6_21 
REMARK    9  A    between atoms: C6_21  and  O6_22 
REMARK   10  A    between atoms: C2_26  and  O2_27 
REMARK   11  A    between atoms: O2_27  and  S_40 
REMARK   12  A    between atoms: C3_29  and  O3_30 
REMARK   13  A    between atoms: C4_33  and  O4_34 
REMARK   14  A    between atoms: O4_34  and  C1_41 
REMARK   15  A    between atoms: C5_35  and  C6_37 
REMARK   16  A    between atoms: S1_43  and  N2_45 
REMARK   17  A    between atoms: C2_44  and  N2_45 
REMARK   18  A    between atoms: S2_48  and  O6_60 
REMARK   19  A    between atoms: C3_49  and  O3_50 
REMARK   20  A    between atoms: C4_53  and  O4_54 
REMARK   21  A    between atoms: O4_54  and  C1_62 
REMARK   22  A    between atoms: C5_56  and  C6_59 
REMARK   23  A    between atoms: C6_59  and  O6_60 
REMARK   24  A    between atoms: C2_64  and  O2_65 
REMARK   25  A    between atoms: O2_65  and  S_77 
REMARK   26  A    between atoms: C3_67  and  O3_68 
REMARK   27  A    between atoms: C5_72  and  C6_74 
ROOT
HETATM    1  C1  IDS C   2      35.061  72.303  20.705  1.00 40.81     0.294 C 
HETATM    2  C2  IDS C   2      33.645  72.149  21.265  1.00 40.20     0.231 C 
HETATM    3  C3  IDS C   2      32.608  72.713  20.297  1.00 39.01     0.185 C 
HETATM    4  C4  IDS C   2      32.853  74.213  20.038  1.00 37.65     0.195 C 
HETATM    5  C5  IDS C   2      34.305  74.571  20.380  1.00 35.99     0.257 C 
HETATM    6  O5  IDS C   2      35.186  73.515  19.928  1.00 39.00    -0.340 OA
ENDROOT
BRANCH   4   7
HETATM    7  O4  IDS C   2      32.579  74.522  18.648  1.00 35.98    -0.348 OA
BRANCH   7   8
HETATM    8  C1  SGN C   3      31.339  74.093  18.154  1.00 35.40     0.287 C 
HETATM    9  C2  SGN C   3      31.280  74.292  16.629  1.00 33.71     0.182 C 
HETATM   10  C3  SGN C   3      31.138  75.768  16.239  1.00 35.79     0.178 C 
HETATM   11  C4  SGN C   3      30.054  76.479  17.068  1.00 36.62     0.186 C 
HETATM   12  C5  SGN C   3      30.249  76.182  18.549  1.00 39.32     0.181 C 
HETATM   13  O5  SGN C   3      30.255  74.761  18.773  1.00 37.58    -0.349 OA
BRANCH   9  14
HETATM   14  N2  SGN C   3      32.484  73.766  16.025  1.00 29.28    -0.289 N 
ATOM     15  H2  SGN C   3      33.405  74.102  16.306  1.00  0.00     0.175 HD
BRANCH  14  16
HETATM   16  S1  SGN C   3      32.315  72.602  14.866  1.00 27.84     0.205 S 
HETATM   17  O1S SGN C   3      31.473  71.594  15.481  1.00 27.65    -0.578 OA
HETATM   18  O2S SGN C   3      33.699  72.112  14.597  1.00 27.72    -0.578 OA
HETATM   19  O3S SGN C   3      31.687  73.202  13.647  1.00 28.50    -0.578 OA
ENDBRANCH  14  16
ENDBRANCH   9  14
BRANCH  10  20
HETATM   20  O3  SGN C   3      30.834  75.866  14.850  1.00 34.89    -0.391 OA
ATOM     21  H3  SGN C   3      31.178  76.683  14.507  1.00  0.00     0.210 HD
ENDBRANCH  10  20
BRANCH  11  22
HETATM   22  O4  SGN C   3      30.162  77.900  16.868  1.00 37.13    -0.348 OA
BRANCH  22  23
HETATM   23  C1  UAP C   4      29.022  78.520  16.381  1.00 39.64     0.294 C 
HETATM   24  C2  UAP C   4      29.206  78.877  14.917  1.00 38.70     0.228 C 
HETATM   25  C3  UAP C   4      27.989  79.645  14.409  1.00 38.51     0.156 C 
HETATM   26  C4  UAP C   4      26.593  79.059  14.922  1.00 38.14     0.077 C 
HETATM   27  C5  UAP C   4      26.699  78.085  15.926  1.00 38.51     0.228 C 
HETATM   28  O5  UAP C   4      27.944  77.601  16.504  1.00 37.46    -0.343 OA
BRANCH  24  29
HETATM   29  O2  UAP C   4      30.370  79.749  14.755  1.00 40.54    -0.244 OA
BRANCH  29  30
HETATM   30  S   UAP C   4      31.490  79.434  13.655  1.00 40.49     0.252 S 
HETATM   31  O1S UAP C   4      30.784  79.041  12.426  1.00 40.89    -0.572 OA
HETATM   32  O2S UAP C   4      32.309  78.334  14.185  1.00 37.88    -0.572 OA
HETATM   33  O3S UAP C   4      32.273  80.666  13.469  1.00 37.47    -0.572 OA
ENDBRANCH  29  30
ENDBRANCH  24  29
BRANCH  25  34
HETATM   34  O3  UAP C   4      28.003  79.646  12.990  1.00 38.58    -0.393 OA
ATOM     35  H3  UAP C   4      28.893  79.792  12.691  1.00  0.00     0.210 HD
ENDBRANCH  25  34
BRANCH  27  36
HETATM   36  C6  UAP C   4      25.510  77.395  16.500  1.00 37.96     0.203 C 
HETATM   37  O6A UAP C   4      25.446  76.154  16.403  1.00 40.05    -0.646 OA
HETATM   38  O6B UAP C   4      24.631  78.092  17.051  1.00 36.71    -0.646 OA
ENDBRANCH  27  36
ENDBRANCH  22  23
ENDBRANCH  11  22
BRANCH  12  39
HETATM   39  C6  SGN C   3      29.188  76.765  19.441  1.00 42.65     0.227 C 
BRANCH  39  40
HETATM   40  O6  SGN C   3      29.481  76.278  20.768  1.00 51.09    -0.254 OA
BRANCH  40  41
HETATM   41  S2  SGN C   3      28.229  76.037  21.727  1.00 54.80     0.251 S 
HETATM   42  O4S SGN C   3      27.104  76.826  21.191  1.00 54.99    -0.572 OA
HETATM   43  O5S SGN C   3      28.636  76.504  23.086  1.00 53.99    -0.572 OA
HETATM   44  O6S SGN C   3      27.945  74.608  21.702  1.00 55.43    -0.572 OA
ENDBRANCH  40  41
ENDBRANCH  39  40
ENDBRANCH  12  39
ENDBRANCH   7   8
ENDBRANCH   4   7
BRANCH   3  45
HETATM   45  O3  IDS C   2      31.306  72.522  20.834  1.00 39.65    -0.390 OA
ATOM     46  H3  IDS C   2      30.860  73.359  20.888  1.00  0.00     0.210 HD
ENDBRANCH   3  45
BRANCH   5  47
HETATM   47  C6  IDS C   2      34.802  75.881  19.783  1.00 36.10     0.206 C 
HETATM   48  O6A IDS C   2      34.409  76.945  20.311  1.00 32.44    -0.646 OA
HETATM   49  O6B IDS C   2      35.587  75.830  18.806  1.00 33.44    -0.646 OA
ENDBRANCH   5  47
BRANCH   2  50
HETATM   50  O2  IDS C   2      33.351  70.737  21.476  1.00 43.59    -0.244 OA
BRANCH  50  51
HETATM   51  S   IDS C   2      33.410  69.727  20.242  1.00 44.11     0.252 S 
HETATM   52  O1S IDS C   2      32.425  70.226  19.224  1.00 44.48    -0.572 OA
HETATM   53  O2S IDS C   2      33.048  68.390  20.758  1.00 44.29    -0.572 OA
HETATM   54  O3S IDS C   2      34.771  69.758  19.736  1.00 44.74    -0.572 OA
ENDBRANCH  50  51
ENDBRANCH   2  50
BRANCH   1  55
HETATM   55  O4  SGN C   1      35.970  72.354  21.752  1.00 44.73    -0.348 OA
BRANCH  55  56
HETATM   56  C4  SGN C   1      37.224  71.657  21.585  1.00 48.25     0.186 C 
HETATM   57  C3  SGN C   1      38.373  72.669  21.496  1.00 48.43     0.178 C 
HETATM   58  C2  SGN C   1      39.715  71.939  21.476  1.00 48.58     0.181 C 
HETATM   59  C1  SGN C   1      39.846  70.972  22.651  1.00 50.40     0.283 C 
HETATM   60  O5  SGN C   1      38.741  70.060  22.666  1.00 50.82    -0.349 OA
HETATM   61  C5  SGN C   1      37.462  70.724  22.785  1.00 51.58     0.181 C 
BRANCH  57  62
HETATM   62  O3  SGN C   1      38.243  73.445  20.315  1.00 46.09    -0.391 OA
ATOM     63  H3  SGN C   1      39.102  73.571  19.927  1.00  0.00     0.210 HD
ENDBRANCH  57  62
BRANCH  58  64
HETATM   64  N2  SGN C   1      40.808  72.889  21.503  1.00 48.56    -0.289 N 
ATOM     65  H2  SGN C   1      40.996  73.490  22.306  1.00  0.00     0.175 HD
BRANCH  64  66
HETATM   66  S1  SGN C   1      41.725  72.922  20.127  1.00 47.67     0.205 S 
HETATM   67  O1S SGN C   1      42.907  72.071  20.383  1.00 47.59    -0.578 OA
HETATM   68  O2S SGN C   1      42.081  74.331  19.929  1.00 48.55    -0.578 OA
HETATM   69  O3S SGN C   1      40.874  72.394  19.038  1.00 47.08    -0.578 OA
ENDBRANCH  64  66
ENDBRANCH  58  64
BRANCH  59  70
HETATM   70  O1  SGN C   1      39.853  71.679  23.845  1.00 51.36    -0.369 OA
ATOM     71  H1  SGN C   1      39.225  72.391  23.803  1.00  0.00     0.212 HD
ENDBRANCH  59  70
BRANCH  61  72
HETATM   72  C6  SGN C   1      36.421  69.638  22.892  1.00 55.48     0.227 C 
BRANCH  72  73
HETATM   73  O6  SGN C   1      35.869  69.628  24.227  1.00 61.59    -0.254 OA
BRANCH  73  74
HETATM   74  S2  SGN C   1      36.167  68.310  25.072  1.00 65.98     0.251 S 
HETATM   75  O4S SGN C   1      34.897  67.982  25.860  1.00 65.09    -0.572 OA
HETATM   76  O5S SGN C   1      37.281  68.623  25.948  1.00 65.58    -0.572 OA
HETATM   77  O6S SGN C   1      36.528  67.183  24.054  1.00 65.84    -0.572 OA
ENDBRANCH  73  74
ENDBRANCH  72  73
ENDBRANCH  61  72
ENDBRANCH  55  56
ENDBRANCH   1  55
TORSDOF 27
ENDMDL
MODEL 8
REMARK VINA RESULT:      -7.2      2.388      4.447
REMARK  27 active torsions:
REMARK  status: ('A' for Active; 'I' for Inactive)
REMARK    1  A    between atoms: C1_1  and  O1_2 
REMARK    2  A    between atoms: S1_5  and  N2_7 
REMARK    3  A    between atoms: C2_6  and  N2_7 
REMARK    4  A    between atoms: S2_10  and  O6_22 
REMARK    5  A    between atoms: C3_11  and  O3_12 
REMARK    6  A    between atoms: C4_15  and  O4_16 
REMARK    7  A    between atoms: O4_16  and  C1_24 
REMARK    8  A    between atoms: C5_18  and  C6_21 
REMARK    9  A    between atoms: C6_21  and  O6_22 
REMARK   10  A    between atoms: C2_26  and  O2_27 
REMARK   11  A    between atoms: O2_27  and  S_40 
REMARK   12  A    between atoms: C3_29  and  O3_30 
REMARK   13  A    between atoms: C4_33  and  O4_34 
REMARK   14  A    between atoms: O4_34  and  C1_41 
REMARK   15  A    between atoms: C5_35  and  C6_37 
REMARK   16  A    between atoms: S1_43  and  N2_45 
REMARK   17  A    between atoms: C2_44  and  N2_45 
REMARK   18  A    between atoms: S2_48  and  O6_60 
REMARK   19  A    between atoms: C3_49  and  O3_50 
REMARK   20  A    between atoms: C4_53  and  O4_54 
REMARK   21  A    between atoms: O4_54  and  C1_62 
REMARK   22  A    between atoms: C5_56  and  C6_59 
REMARK   23  A    between atoms: C6_59  and  O6_60 
REMARK   24  A    between atoms: C2_64  and  O2_65 
REMARK   25  A    between atoms: O2_65  and  S_77 
REMARK   26  A    between atoms: C3_67  and  O3_68 
REMARK   27  A    between atoms: C5_72  and  C6_74 
ROOT
HETATM    1  C1  IDS C   2      32.464  74.746  18.201  1.00 40.81     0.294 C 
HETATM    2  C2  IDS C   2      33.661  74.991  19.123  1.00 40.20     0.231 C 
HETATM    3  C3  IDS C   2      34.339  73.678  19.501  1.00 39.01     0.185 C 
HETATM    4  C4  IDS C   2      33.360  72.742  20.238  1.00 37.65     0.195 C 
HETATM    5  C5  IDS C   2      31.915  73.149  19.924  1.00 35.99     0.257 C 
HETATM    6  O5  IDS C   2      31.801  73.503  18.525  1.00 39.00    -0.340 OA
ENDROOT
BRANCH   4   7
HETATM    7  O4  IDS C   2      33.589  71.370  19.829  1.00 35.98    -0.348 OA
BRANCH   7   8
HETATM    8  C1  SGN C   3      34.931  70.980  19.706  1.00 35.40     0.287 C 
HETATM    9  C2  SGN C   3      35.015  69.510  19.258  1.00 33.71     0.182 C 
HETATM   10  C3  SGN C   3      34.637  68.536  20.380  1.00 35.79     0.178 C 
HETATM   11  C4  SGN C   3      35.330  68.891  21.707  1.00 36.62     0.186 C 
HETATM   12  C5  SGN C   3      35.158  70.374  22.007  1.00 39.32     0.181 C 
HETATM   13  O5  SGN C   3      35.654  71.162  20.910  1.00 37.58    -0.349 OA
BRANCH   9  14
HETATM   14  N2  SGN C   3      34.128  69.295  18.136  1.00 29.28    -0.289 N 
ATOM     15  H2  SGN C   3      33.124  69.455  18.220  1.00  0.00     0.175 HD
BRANCH  14  16
HETATM   16  S1  SGN C   3      34.797  68.781  16.717  1.00 27.84     0.205 S 
HETATM   17  O1S SGN C   3      35.320  67.461  17.017  1.00 27.65    -0.578 OA
HETATM   18  O2S SGN C   3      35.872  69.771  16.409  1.00 27.72    -0.578 OA
HETATM   19  O3S SGN C   3      33.745  68.748  15.653  1.00 28.50    -0.578 OA
ENDBRANCH  14  16
ENDBRANCH   9  14
BRANCH  10  20
HETATM   20  O3  SGN C   3      34.976  67.207  19.991  1.00 34.89    -0.391 OA
ATOM     21  H3  SGN C   3      35.759  66.932  20.454  1.00  0.00     0.210 HD
ENDBRANCH  10  20
BRANCH  11  22
HETATM   22  O4  SGN C   3      34.726  68.136  22.772  1.00 37.13    -0.348 OA
BRANCH  22  23
HETATM   23  C1  UAP C   4      35.557  67.217  23.393  1.00 39.64     0.294 C 
HETATM   24  C2  UAP C   4      35.363  65.841  22.783  1.00 38.70     0.228 C 
HETATM   25  C3  UAP C   4      36.206  64.812  23.531  1.00 38.51     0.156 C 
HETATM   26  C4  UAP C   4      37.674  65.325  23.903  1.00 38.14     0.077 C 
HETATM   27  C5  UAP C   4      37.888  66.695  23.691  1.00 38.51     0.228 C 
HETATM   28  O5  UAP C   4      36.899  67.635  23.182  1.00 37.46    -0.343 OA
BRANCH  24  29
HETATM   29  O2  UAP C   4      33.964  65.428  22.905  1.00 40.54    -0.244 OA
BRANCH  29  30
HETATM   30  S   UAP C   4      33.279  64.496  21.799  1.00 40.49     0.252 S 
HETATM   31  O1S UAP C   4      34.181  64.475  20.638  1.00 40.89    -0.572 OA
HETATM   32  O2S UAP C   4      31.985  65.110  21.469  1.00 37.88    -0.572 OA
HETATM   33  O3S UAP C   4      33.120  63.161  22.397  1.00 37.47    -0.572 OA
ENDBRANCH  29  30
ENDBRANCH  24  29
BRANCH  25  34
HETATM   34  O3  UAP C   4      36.306  63.636  22.744  1.00 38.58    -0.393 OA
ATOM     35  H3  UAP C   4      36.538  63.878  21.855  1.00  0.00     0.210 HD
ENDBRANCH  25  34
BRANCH  27  36
HETATM   36  C6  UAP C   4      39.203  67.348  23.941  1.00 37.96     0.203 C 
HETATM   37  O6A UAP C   4      40.233  66.771  23.537  1.00 40.05    -0.646 OA
HETATM   38  O6B UAP C   4      39.215  68.441  24.546  1.00 36.71    -0.646 OA
ENDBRANCH  27  36
ENDBRANCH  22  23
ENDBRANCH  11  22
BRANCH  12  39
HETATM   39  C6  SGN C   3      35.872  70.841  23.245  1.00 42.65     0.227 C 
BRANCH  39  40
HETATM   40  O6  SGN C   3      36.347  72.171  22.944  1.00 51.09    -0.254 OA
BRANCH  40  41
HETATM   41  S2  SGN C   3      37.926  72.340  22.787  1.00 54.80     0.251 S 
HETATM   42  O4S SGN C   3      38.535  71.013  22.991  1.00 54.99    -0.572 OA
HETATM   43  O5S SGN C   3      38.357  73.314  23.834  1.00 53.99    -0.572 OA
HETATM   44  O6S SGN C   3      38.166  72.843  21.441  1.00 55.43    -0.572 OA
ENDBRANCH  40  41
ENDBRANCH  39  40
ENDBRANCH  12  39
ENDBRANCH   7   8
ENDBRANCH   4   7
BRANCH   3  45
HETATM   45  O3  IDS C   2      35.464  73.946  20.328  1.00 39.65    -0.390 OA
ATOM     46  H3  IDS C   2      35.351  73.514  21.166  1.00  0.00     0.210 HD
ENDBRANCH   3  45
BRANCH   5  47
HETATM   47  C6  IDS C   2      30.868  72.084  20.222  1.00 36.10     0.206 C 
HETATM   48  O6A IDS C   2      30.456  71.988  21.399  1.00 32.44    -0.646 OA
HETATM   49  O6B IDS C   2      30.459  71.369  19.275  1.00 33.44    -0.646 OA
ENDBRANCH   5  47
BRANCH   2  50
HETATM   50  O2  IDS C   2      34.639  75.831  18.444  1.00 43.59    -0.244 OA
BRANCH  50  51
HETATM   51  S   IDS C   2      34.872  77.329  18.941  1.00 44.11     0.252 S 
HETATM   52  O1S IDS C   2      34.579  77.349  20.414  1.00 44.48    -0.572 OA
HETATM   53  O2S IDS C   2      33.944  78.189  18.176  1.00 44.29    -0.572 OA
HETATM   54  O3S IDS C   2      36.260  77.655  18.662  1.00 44.74    -0.572 OA
ENDBRANCH  50  51
ENDBRANCH   2  50
BRANCH   1  55
HETATM   55  O4  SGN C   1      31.552  75.782  18.341  1.00 44.73    -0.348 OA
BRANCH  55  56
HETATM   56  C4  SGN C   1      30.630  76.015  17.254  1.00 48.25     0.186 C 
HETATM   57  C3  SGN C   1      29.327  76.613  17.797  1.00 48.43     0.178 C 
HETATM   58  C2  SGN C   1      28.408  77.007  16.641  1.00 48.58     0.181 C 
HETATM   59  C1  SGN C   1      29.121  77.914  15.640  1.00 50.40     0.283 C 
HETATM   60  O5  SGN C   1      30.324  77.287  15.178  1.00 50.82    -0.349 OA
HETATM   61  C5  SGN C   1      31.255  76.994  16.246  1.00 51.58     0.181 C 
BRANCH  57  62
HETATM   62  O3  SGN C   1      28.665  75.665  18.619  1.00 46.09    -0.391 OA
ATOM     63  H3  SGN C   1      28.922  75.801  19.524  1.00  0.00     0.210 HD
ENDBRANCH  57  62
BRANCH  58  64
HETATM   64  N2  SGN C   1      27.223  77.673  17.141  1.00 48.56    -0.289 N 
ATOM     65  H2  SGN C   1      27.245  78.321  17.929  1.00  0.00     0.175 HD
BRANCH  64  66
HETATM   66  S1  SGN C   1      25.829  77.296  16.333  1.00 47.67     0.205 S 
HETATM   67  O1S SGN C   1      25.962  77.859  14.971  1.00 47.59    -0.578 OA
HETATM   68  O2S SGN C   1      24.751  77.930  17.098  1.00 48.55    -0.578 OA
HETATM   69  O3S SGN C   1      25.729  75.820  16.326  1.00 47.08    -0.578 OA
ENDBRANCH  64  66
ENDBRANCH  58  64
BRANCH  59  70
HETATM   70  O1  SGN C   1      29.453  79.117  16.246  1.00 51.36    -0.369 OA
ATOM     71  H1  SGN C   1      28.753  79.746  16.118  1.00  0.00     0.212 HD
ENDBRANCH  59  70
BRANCH  61  72
HETATM   72  C6  SGN C   1      32.499  76.443  15.594  1.00 55.48     0.227 C 
BRANCH  72  73
HETATM   73  O6  SGN C   1      32.139  75.739  14.386  1.00 61.59    -0.254 OA
BRANCH  73  74
HETATM   74  S2  SGN C   1      32.586  74.210  14.335  1.00 65.98     0.251 S 
HETATM   75  O4S SGN C   1      31.493  73.397  15.033  1.00 65.09    -0.572 OA
HETATM   76  O5S SGN C   1      33.854  74.126  15.037  1.00 65.58    -0.572 OA
HETATM   77  O6S SGN C   1      32.729  73.822  12.830  1.00 65.84    -0.572 OA
ENDBRANCH  73  74
ENDBRANCH  72  73
ENDBRANCH  61  72
ENDBRANCH  55  56
ENDBRANCH   1  55
TORSDOF 27
ENDMDL
MODEL 9
REMARK VINA RESULT:      -7.2      3.132     11.297
REMARK  27 active torsions:
REMARK  status: ('A' for Active; 'I' for Inactive)
REMARK    1  A    between atoms: C1_1  and  O1_2 
REMARK    2  A    between atoms: S1_5  and  N2_7 
REMARK    3  A    between atoms: C2_6  and  N2_7 
REMARK    4  A    between atoms: S2_10  and  O6_22 
REMARK    5  A    between atoms: C3_11  and  O3_12 
REMARK    6  A    between atoms: C4_15  and  O4_16 
REMARK    7  A    between atoms: O4_16  and  C1_24 
REMARK    8  A    between atoms: C5_18  and  C6_21 
REMARK    9  A    between atoms: C6_21  and  O6_22 
REMARK   10  A    between atoms: C2_26  and  O2_27 
REMARK   11  A    between atoms: O2_27  and  S_40 
REMARK   12  A    between atoms: C3_29  and  O3_30 
REMARK   13  A    between atoms: C4_33  and  O4_34 
REMARK   14  A    between atoms: O4_34  and  C1_41 
REMARK   15  A    between atoms: C5_35  and  C6_37 
REMARK   16  A    between atoms: S1_43  and  N2_45 
REMARK   17  A    between atoms: C2_44  and  N2_45 
REMARK   18  A    between atoms: S2_48  and  O6_60 
REMARK   19  A    between atoms: C3_49  and  O3_50 
REMARK   20  A    between atoms: C4_53  and  O4_54 
REMARK   21  A    between atoms: O4_54  and  C1_62 
REMARK   22  A    between atoms: C5_56  and  C6_59 
REMARK   23  A    between atoms: C6_59  and  O6_60 
REMARK   24  A    between atoms: C2_64  and  O2_65 
REMARK   25  A    between atoms: O2_65  and  S_77 
REMARK   26  A    between atoms: C3_67  and  O3_68 
REMARK   27  A    between atoms: C5_72  and  C6_74 
ROOT
HETATM    1  C1  IDS C   2      36.079  71.024  21.488  1.00 40.81     0.294 C 
HETATM    2  C2  IDS C   2      34.754  70.958  22.252  1.00 40.20     0.231 C 
HETATM    3  C3  IDS C   2      33.578  71.289  21.338  1.00 39.01     0.185 C 
HETATM    4  C4  IDS C   2      33.715  72.709  20.752  1.00 37.65     0.195 C 
HETATM    5  C5  IDS C   2      35.180  73.160  20.818  1.00 35.99     0.257 C 
HETATM    6  O5  IDS C   2      36.046  72.052  20.474  1.00 39.00    -0.340 OA
ENDROOT
BRANCH   4   7
HETATM    7  O4  IDS C   2      33.253  72.720  19.378  1.00 35.98    -0.348 OA
BRANCH   7   8
HETATM    8  C1  SGN C   3      31.872  72.572  19.191  1.00 35.40     0.287 C 
HETATM    9  C2  SGN C   3      31.545  72.501  17.689  1.00 33.71     0.182 C 
HETATM   10  C3  SGN C   3      31.685  73.862  16.997  1.00 35.79     0.178 C 
HETATM   11  C4  SGN C   3      31.002  74.985  17.796  1.00 36.62     0.186 C 
HETATM   12  C5  SGN C   3      31.424  74.919  19.258  1.00 39.32     0.181 C 
HETATM   13  O5  SGN C   3      31.133  73.617  19.798  1.00 37.58    -0.349 OA
BRANCH   9  14
HETATM   14  N2  SGN C   3      32.435  71.559  17.045  1.00 29.28    -0.289 N 
ATOM     15  H2  SGN C   3      33.443  71.708  17.035  1.00  0.00     0.175 HD
BRANCH  14  16
HETATM   16  S1  SGN C   3      31.758  70.233  16.328  1.00 27.84     0.205 S 
HETATM   17  O1S SGN C   3      31.059  69.555  17.403  1.00 27.65    -0.578 OA
HETATM   18  O2S SGN C   3      32.910  69.443  15.801  1.00 27.72    -0.578 OA
HETATM   19  O3S SGN C   3      30.835  70.675  15.237  1.00 28.50    -0.578 OA
ENDBRANCH  14  16
ENDBRANCH   9  14
BRANCH  10  20
HETATM   20  O3  SGN C   3      31.131  73.788  15.686  1.00 34.89    -0.391 OA
ATOM     21  H3  SGN C   3      31.301  74.601  15.224  1.00  0.00     0.210 HD
ENDBRANCH  10  20
BRANCH  11  22
HETATM   22  O4  SGN C   3      31.405  76.258  17.261  1.00 37.13    -0.348 OA
BRANCH  22  23
HETATM   23  C1  UAP C   4      30.405  76.980  16.629  1.00 39.64     0.294 C 
HETATM   24  C2  UAP C   4      30.693  77.080  15.142  1.00 38.70     0.228 C 
HETATM   25  C3  UAP C   4      29.643  77.956  14.463  1.00 38.51     0.156 C 
HETATM   26  C4  UAP C   4      28.152  77.694  14.975  1.00 38.14     0.077 C 
HETATM   27  C5  UAP C   4      28.056  76.876  16.110  1.00 38.51     0.228 C 
HETATM   28  O5  UAP C   4      29.181  76.283  16.820  1.00 37.46    -0.343 OA
BRANCH  24  29
HETATM   29  O2  UAP C   4      31.995  77.711  14.922  1.00 40.54    -0.244 OA
BRANCH  29  30
HETATM   30  S   UAP C   4      33.100  77.022  13.991  1.00 40.49     0.252 S 
HETATM   31  O1S UAP C   4      34.380  77.682  14.286  1.00 40.89    -0.572 OA
HETATM   32  O2S UAP C   4      32.682  77.246  12.600  1.00 37.88    -0.572 OA
HETATM   33  O3S UAP C   4      33.126  75.592  14.337  1.00 37.47    -0.572 OA
ENDBRANCH  29  30
ENDBRANCH  24  29
BRANCH  25  34
HETATM   34  O3  UAP C   4      29.702  77.743  13.061  1.00 38.58    -0.393 OA
ATOM     35  H3  UAP C   4      28.843  77.905  12.688  1.00  0.00     0.210 HD
ENDBRANCH  25  34
BRANCH  27  36
HETATM   36  C6  UAP C   4      26.749  76.488  16.709  1.00 37.96     0.203 C 
HETATM   37  O6A UAP C   4      26.429  76.996  17.802  1.00 40.05    -0.646 OA
HETATM   38  O6B UAP C   4      26.035  75.670  16.091  1.00 36.71    -0.646 OA
ENDBRANCH  27  36
ENDBRANCH  22  23
ENDBRANCH  11  22
BRANCH  12  39
HETATM   39  C6  SGN C   3      30.744  75.926  20.143  1.00 42.65     0.227 C 
BRANCH  39  40
HETATM   40  O6  SGN C   3      29.328  75.685  19.994  1.00 51.09    -0.254 OA
BRANCH  40  41
HETATM   41  S2  SGN C   3      28.426  75.939  21.286  1.00 54.80     0.251 S 
HETATM   42  O4S SGN C   3      27.318  76.825  20.884  1.00 54.99    -0.572 OA
HETATM   43  O5S SGN C   3      29.310  76.583  22.303  1.00 53.99    -0.572 OA
HETATM   44  O6S SGN C   3      27.944  74.637  21.727  1.00 55.43    -0.572 OA
ENDBRANCH  40  41
ENDBRANCH  39  40
ENDBRANCH  12  39
ENDBRANCH   7   8
ENDBRANCH   4   7
BRANCH   3  45
HETATM   45  O3  IDS C   2      32.365  71.186  22.071  1.00 39.65    -0.390 OA
ATOM     46  H3  IDS C   2      32.539  71.326  22.994  1.00  0.00     0.210 HD
ENDBRANCH   3  45
BRANCH   5  47
HETATM   47  C6  IDS C   2      35.534  74.329  19.909  1.00 36.10     0.206 C 
HETATM   48  O6A IDS C   2      34.916  75.404  20.079  1.00 32.44    -0.646 OA
HETATM   49  O6B IDS C   2      36.433  74.165  19.049  1.00 33.44    -0.646 OA
ENDBRANCH   5  47
BRANCH   2  50
HETATM   50  O2  IDS C   2      34.558  69.614  22.780  1.00 43.59    -0.244 OA
BRANCH  50  51
HETATM   51  S   IDS C   2      34.485  69.390  24.358  1.00 44.11     0.252 S 
HETATM   52  O1S IDS C   2      33.843  68.049  24.577  1.00 44.48    -0.572 OA
HETATM   53  O2S IDS C   2      33.674  70.493  24.916  1.00 44.29    -0.572 OA
HETATM   54  O3S IDS C   2      35.850  69.422  24.852  1.00 44.74    -0.572 OA
ENDBRANCH  50  51
ENDBRANCH   2  50
BRANCH   1  55
HETATM   55  O4  SGN C   1      37.110  71.308  22.372  1.00 44.73    -0.348 OA
BRANCH  55  56
HETATM   56  C4  SGN C   1      38.462  71.064  21.926  1.00 48.25     0.186 C 
HETATM   57  C3  SGN C   1      39.255  72.377  21.930  1.00 48.43     0.178 C 
HETATM   58  C2  SGN C   1      40.724  72.104  21.610  1.00 48.58     0.181 C 
HETATM   59  C1  SGN C   1      41.310  71.037  22.532  1.00 50.40     0.283 C 
HETATM   60  O5  SGN C   1      40.519  69.844  22.472  1.00 50.82    -0.349 OA
HETATM   61  C5  SGN C   1      39.144  70.057  22.867  1.00 51.58     0.181 C 
BRANCH  57  62
HETATM   62  O3  SGN C   1      38.722  73.266  20.962  1.00 46.09    -0.391 OA
ATOM     63  H3  SGN C   1      38.892  72.923  20.092  1.00  0.00     0.210 HD
ENDBRANCH  57  62
BRANCH  58  64
HETATM   64  N2  SGN C   1      41.500  73.322  21.719  1.00 48.56    -0.289 N 
ATOM     65  H2  SGN C   1      41.597  73.837  22.594  1.00  0.00     0.175 HD
BRANCH  64  66
HETATM   66  S1  SGN C   1      42.216  73.810  20.310  1.00 47.67     0.205 S 
HETATM   67  O1S SGN C   1      41.135  73.949  19.310  1.00 47.59    -0.578 OA
HETATM   68  O2S SGN C   1      43.164  72.745  19.966  1.00 48.55    -0.578 OA
HETATM   69  O3S SGN C   1      42.887  75.096  20.599  1.00 47.08    -0.578 OA
ENDBRANCH  64  66
ENDBRANCH  58  64
BRANCH  59  70
HETATM   70  O1  SGN C   1      41.320  71.497  23.840  1.00 51.36    -0.369 OA
ATOM     71  H1  SGN C   1      41.400  70.765  24.440  1.00  0.00     0.212 HD
ENDBRANCH  59  70
BRANCH  61  72
HETATM   72  C6  SGN C   1      38.477  68.704  22.854  1.00 55.48     0.227 C 
BRANCH  72  73
HETATM   73  O6  SGN C   1      38.764  68.012  24.089  1.00 61.59    -0.254 OA
BRANCH  73  74
HETATM   74  S2  SGN C   1      38.417  66.457  24.089  1.00 65.98     0.251 S 
HETATM   75  O4S SGN C   1      39.194  65.821  25.244  1.00 65.09    -0.572 OA
HETATM   76  O5S SGN C   1      38.841  65.938  22.802  1.00 65.58    -0.572 OA
HETATM   77  O6S SGN C   1      36.873  66.330  24.287  1.00 65.84    -0.572 OA
ENDBRANCH  73  74
ENDBRANCH  72  73
ENDBRANCH  61  72
ENDBRANCH  55  56
ENDBRANCH   1  55
TORSDOF 27
ENDMDL
MODEL 10
REMARK VINA RESULT:      -7.2      4.196      9.106
REMARK  27 active torsions:
REMARK  status: ('A' for Active; 'I' for Inactive)
REMARK    1  A    between atoms: C1_1  and  O1_2 
REMARK    2  A    between atoms: S1_5  and  N2_7 
REMARK    3  A    between atoms: C2_6  and  N2_7 
REMARK    4  A    between atoms: S2_10  and  O6_22 
REMARK    5  A    between atoms: C3_11  and  O3_12 
REMARK    6  A    between atoms: C4_15  and  O4_16 
REMARK    7  A    between atoms: O4_16  and  C1_24 
REMARK    8  A    between atoms: C5_18  and  C6_21 
REMARK    9  A    between atoms: C6_21  and  O6_22 
REMARK   10  A    between atoms: C2_26  and  O2_27 
REMARK   11  A    between atoms: O2_27  and  S_40 
REMARK   12  A    between atoms: C3_29  and  O3_30 
REMARK   13  A    between atoms: C4_33  and  O4_34 
REMARK   14  A    between atoms: O4_34  and  C1_41 
REMARK   15  A    between atoms: C5_35  and  C6_37 
REMARK   16  A    between atoms: S1_43  and  N2_45 
REMARK   17  A    between atoms: C2_44  and  N2_45 
REMARK   18  A    between atoms: S2_48  and  O6_60 
REMARK   19  A    between atoms: C3_49  and  O3_50 
REMARK   20  A    between atoms: C4_53  and  O4_54 
REMARK   21  A    between atoms: O4_54  and  C1_62 
REMARK   22  A    between atoms: C5_56  and  C6_59 
REMARK   23  A    between atoms: C6_59  and  O6_60 
REMARK   24  A    between atoms: C2_64  and  O2_65 
REMARK   25  A    between atoms: O2_65  and  S_77 
REMARK   26  A    between atoms: C3_67  and  O3_68 
REMARK   27  A    between atoms: C5_72  and  C6_74 
ROOT
HETATM    1  C1  IDS C   2      28.242  79.935  14.238  1.00 40.81     0.294 C 
HETATM    2  C2  IDS C   2      29.244  80.619  15.171  1.00 40.20     0.231 C 
HETATM    3  C3  IDS C   2      30.237  79.610  15.742  1.00 39.01     0.185 C 
HETATM    4  C4  IDS C   2      29.511  78.515  16.549  1.00 37.65     0.195 C 
HETATM    5  C5  IDS C   2      28.039  78.445  16.124  1.00 35.99     0.257 C 
HETATM    6  O5  IDS C   2      27.938  78.597  14.688  1.00 39.00    -0.340 OA
ENDROOT
BRANCH   4   7
HETATM    7  O4  IDS C   2      30.153  77.234  16.327  1.00 35.98    -0.348 OA
BRANCH   7   8
HETATM    8  C1  SGN C   3      31.470  77.116  16.794  1.00 35.40     0.287 C 
HETATM    9  C2  SGN C   3      32.288  76.216  15.850  1.00 33.71     0.182 C 
HETATM   10  C3  SGN C   3      31.907  74.737  15.980  1.00 35.79     0.178 C 
HETATM   11  C4  SGN C   3      31.822  74.292  17.450  1.00 36.62     0.186 C 
HETATM   12  C5  SGN C   3      30.985  75.283  18.249  1.00 39.32     0.181 C 
HETATM   13  O5  SGN C   3      31.526  76.609  18.115  1.00 37.58    -0.349 OA
BRANCH   9  14
HETATM   14  N2  SGN C   3      32.075  76.633  14.481  1.00 29.28    -0.289 N 
ATOM     15  H2  SGN C   3      31.199  76.432  13.999  1.00  0.00     0.175 HD
BRANCH  14  16
HETATM   16  S1  SGN C   3      33.300  77.445  13.728  1.00 27.84     0.205 S 
HETATM   17  O1S SGN C   3      33.604  76.642  12.558  1.00 27.65    -0.578 OA
HETATM   18  O2S SGN C   3      34.419  77.471  14.716  1.00 27.72    -0.578 OA
HETATM   19  O3S SGN C   3      32.837  78.822  13.369  1.00 28.50    -0.578 OA
ENDBRANCH  14  16
ENDBRANCH   9  14
BRANCH  10  20
HETATM   20  O3  SGN C   3      32.859  73.938  15.281  1.00 34.89    -0.391 OA
ATOM     21  H3  SGN C   3      33.322  74.476  14.650  1.00  0.00     0.210 HD
ENDBRANCH  10  20
BRANCH  11  22
HETATM   22  O4  SGN C   3      31.191  73.001  17.518  1.00 37.13    -0.348 OA
BRANCH  22  23
HETATM   23  C1  UAP C   4      31.983  71.979  18.018  1.00 39.64     0.294 C 
HETATM   24  C2  UAP C   4      32.541  71.145  16.879  1.00 38.70     0.228 C 
HETATM   25  C3  UAP C   4      33.332  69.964  17.434  1.00 38.51     0.156 C 
HETATM   26  C4  UAP C   4      34.257  70.334  18.684  1.00 38.14     0.077 C 
HETATM   27  C5  UAP C   4      34.038  71.612  19.218  1.00 38.51     0.228 C 
HETATM   28  O5  UAP C   4      33.061  72.575  18.729  1.00 37.46    -0.343 OA
BRANCH  24  29
HETATM   29  O2  UAP C   4      31.447  70.597  16.075  1.00 40.54    -0.244 OA
BRANCH  29  30
HETATM   30  S   UAP C   4      31.353  70.886  14.504  1.00 40.49     0.252 S 
HETATM   31  O1S UAP C   4      30.745  69.699  13.885  1.00 40.89    -0.572 OA
HETATM   32  O2S UAP C   4      32.728  71.101  14.029  1.00 37.88    -0.572 OA
HETATM   33  O3S UAP C   4      30.517  72.085  14.334  1.00 37.47    -0.572 OA
ENDBRANCH  29  30
ENDBRANCH  24  29
BRANCH  25  34
HETATM   34  O3  UAP C   4      34.137  69.421  16.400  1.00 38.58    -0.393 OA
ATOM     35  H3  UAP C   4      34.564  70.131  15.936  1.00  0.00     0.210 HD
ENDBRANCH  25  34
BRANCH  27  36
HETATM   36  C6  UAP C   4      34.830  72.150  20.358  1.00 37.96     0.203 C 
HETATM   37  O6A UAP C   4      34.525  73.272  20.810  1.00 40.05    -0.646 OA
HETATM   38  O6B UAP C   4      35.766  71.455  20.808  1.00 36.71    -0.646 OA
ENDBRANCH  27  36
ENDBRANCH  22  23
ENDBRANCH  11  22
BRANCH  12  39
HETATM   39  C6  SGN C   3      30.910  74.982  19.720  1.00 42.65     0.227 C 
BRANCH  39  40
HETATM   40  O6  SGN C   3      30.669  76.251  20.366  1.00 51.09    -0.254 OA
BRANCH  40  41
HETATM   41  S2  SGN C   3      29.148  76.593  20.710  1.00 54.80     0.251 S 
HETATM   42  O4S SGN C   3      28.848  77.911  20.122  1.00 54.99    -0.572 OA
HETATM   43  O5S SGN C   3      29.041  76.612  22.199  1.00 53.99    -0.572 OA
HETATM   44  O6S SGN C   3      28.334  75.540  20.117  1.00 55.43    -0.572 OA
ENDBRANCH  40  41
ENDBRANCH  39  40
ENDBRANCH  12  39
ENDBRANCH   7   8
ENDBRANCH   4   7
BRANCH   3  45
HETATM   45  O3  IDS C   2      31.171  80.284  16.575  1.00 39.65    -0.390 OA
ATOM     46  H3  IDS C   2      30.970  80.105  17.486  1.00  0.00     0.210 HD
ENDBRANCH   3  45
BRANCH   5  47
HETATM   47  C6  IDS C   2      27.319  77.160  16.509  1.00 36.10     0.206 C 
HETATM   48  O6A IDS C   2      26.865  77.075  17.671  1.00 32.44    -0.646 OA
HETATM   49  O6B IDS C   2      27.203  76.259  15.643  1.00 33.44    -0.646 OA
ENDBRANCH   5  47
BRANCH   2  50
HETATM   50  O2  IDS C   2      29.993  81.628  14.434  1.00 43.59    -0.244 OA
BRANCH  50  51
HETATM   51  S   IDS C   2      30.570  82.901  15.205  1.00 44.11     0.252 S 
HETATM   52  O1S IDS C   2      29.812  83.007  16.498  1.00 44.48    -0.572 OA
HETATM   53  O2S IDS C   2      30.349  84.074  14.332  1.00 44.29    -0.572 OA
HETATM   54  O3S IDS C   2      31.984  82.654  15.426  1.00 44.74    -0.572 OA
ENDBRANCH  50  51
ENDBRANCH   2  50
BRANCH   1  55
HETATM   55  O4  SGN C   1      27.065  80.669  14.206  1.00 44.73    -0.348 OA
BRANCH  55  56
HETATM   56  C4  SGN C   1      26.420  80.846  12.926  1.00 48.25     0.186 C 
HETATM   57  C3  SGN C   1      25.098  80.069  12.899  1.00 48.43     0.178 C 
HETATM   58  C2  SGN C   1      24.335  80.375  11.610  1.00 48.58     0.181 C 
HETATM   59  C1  SGN C   1      24.161  81.878  11.404  1.00 50.40     0.283 C 
HETATM   60  O5  SGN C   1      25.436  82.532  11.440  1.00 50.82    -0.349 OA
HETATM   61  C5  SGN C   1      26.135  82.339  12.691  1.00 51.58     0.181 C 
BRANCH  57  62
HETATM   62  O3  SGN C   1      25.354  78.675  12.972  1.00 46.09    -0.391 OA
ATOM     63  H3  SGN C   1      24.802  78.289  13.642  1.00  0.00     0.210 HD
ENDBRANCH  57  62
BRANCH  58  64
HETATM   64  N2  SGN C   1      23.037  79.732  11.626  1.00 48.56    -0.289 N 
ATOM     65  H2  SGN C   1      22.348  79.900  12.359  1.00  0.00     0.175 HD
BRANCH  64  66
HETATM   66  S1  SGN C   1      22.763  78.705  10.358  1.00 47.67     0.205 S 
HETATM   67  O1S SGN C   1      22.677  79.543   9.142  1.00 47.59    -0.578 OA
HETATM   68  O2S SGN C   1      21.497  78.034  10.667  1.00 48.55    -0.578 OA
HETATM   69  O3S SGN C   1      23.907  77.768  10.318  1.00 47.08    -0.578 OA
ENDBRANCH  64  66
ENDBRANCH  58  64
BRANCH  59  70
HETATM   70  O1  SGN C   1      23.365  82.404  12.412  1.00 51.36    -0.369 OA
ATOM     71  H1  SGN C   1      23.102  81.713  13.009  1.00  0.00     0.212 HD
ENDBRANCH  59  70
BRANCH  61  72
HETATM   72  C6  SGN C   1      27.394  83.166  12.614  1.00 55.48     0.227 C 
BRANCH  72  73
HETATM   73  O6  SGN C   1      27.405  84.131  13.688  1.00 61.59    -0.254 OA
BRANCH  73  74
HETATM   74  S2  SGN C   1      27.236  85.649  13.235  1.00 65.98     0.251 S 
HETATM   75  O4S SGN C   1      28.196  85.881  12.066  1.00 65.09    -0.572 OA
HETATM   76  O5S SGN C   1      27.579  86.465  14.386  1.00 65.58    -0.572 OA
HETATM   77  O6S SGN C   1      25.746  85.840  12.812  1.00 65.84    -0.572 OA
ENDBRANCH  73  74
ENDBRANCH  72  73
ENDBRANCH  61  72
ENDBRANCH  55  56
ENDBRANCH   1  55
TORSDOF 27
ENDMDL
MODEL 11
REMARK VINA RESULT:      -7.2      5.087     10.639
REMARK  27 active torsions:
REMARK  status: ('A' for Active; 'I' for Inactive)
REMARK    1  A    between atoms: C1_1  and  O1_2 
REMARK    2  A    between atoms: S1_5  and  N2_7 
REMARK    3  A    between atoms: C2_6  and  N2_7 
REMARK    4  A    between atoms: S2_10  and  O6_22 
REMARK    5  A    between atoms: C3_11  and  O3_12 
REMARK    6  A    between atoms: C4_15  and  O4_16 
REMARK    7  A    between atoms: O4_16  and  C1_24 
REMARK    8  A    between atoms: C5_18  and  C6_21 
REMARK    9  A    between atoms: C6_21  and  O6_22 
REMARK   10  A    between atoms: C2_26  and  O2_27 
REMARK   11  A    between atoms: O2_27  and  S_40 
REMARK   12  A    between atoms: C3_29  and  O3_30 
REMARK   13  A    between atoms: C4_33  and  O4_34 
REMARK   14  A    between atoms: O4_34  and  C1_41 
REMARK   15  A    between atoms: C5_35  and  C6_37 
REMARK   16  A    between atoms: S1_43  and  N2_45 
REMARK   17  A    between atoms: C2_44  and  N2_45 
REMARK   18  A    between atoms: S2_48  and  O6_60 
REMARK   19  A    between atoms: C3_49  and  O3_50 
REMARK   20  A    between atoms: C4_53  and  O4_54 
REMARK   21  A    between atoms: O4_54  and  C1_62 
REMARK   22  A    between atoms: C5_56  and  C6_59 
REMARK   23  A    between atoms: C6_59  and  O6_60 
REMARK   24  A    between atoms: C2_64  and  O2_65 
REMARK   25  A    between atoms: O2_65  and  S_77 
REMARK   26  A    between atoms: C3_67  and  O3_68 
REMARK   27  A    between atoms: C5_72  and  C6_74 
ROOT
HETATM    1  C1  IDS C   2      31.449  72.501  11.683  1.00 40.81     0.294 C 
HETATM    2  C2  IDS C   2      32.275  71.346  12.253  1.00 40.20     0.231 C 
HETATM    3  C3  IDS C   2      32.420  71.470  13.767  1.00 39.01     0.185 C 
HETATM    4  C4  IDS C   2      33.124  72.788  14.149  1.00 37.65     0.195 C 
HETATM    5  C5  IDS C   2      33.002  73.795  12.999  1.00 35.99     0.257 C 
HETATM    6  O5  IDS C   2      31.676  73.721  12.423  1.00 39.00    -0.340 OA
ENDROOT
BRANCH   4   7
HETATM    7  O4  IDS C   2      32.526  73.333  15.352  1.00 35.98    -0.348 OA
BRANCH   7   8
HETATM    8  C1  SGN C   3      33.296  73.239  16.520  1.00 35.40     0.287 C 
HETATM    9  C2  SGN C   3      32.405  72.840  17.710  1.00 33.71     0.182 C 
HETATM   10  C3  SGN C   3      31.501  73.989  18.172  1.00 35.79     0.178 C 
HETATM   11  C4  SGN C   3      32.275  75.311  18.306  1.00 36.62     0.186 C 
HETATM   12  C5  SGN C   3      33.106  75.561  17.054  1.00 39.32     0.181 C 
HETATM   13  O5  SGN C   3      33.980  74.444  16.810  1.00 37.58    -0.349 OA
BRANCH   9  14
HETATM   14  N2  SGN C   3      31.575  71.716  17.337  1.00 29.28    -0.289 N 
ATOM     15  H2  SGN C   3      30.730  71.846  16.781  1.00  0.00     0.175 HD
BRANCH  14  16
HETATM   16  S1  SGN C   3      32.044  70.215  17.843  1.00 27.84     0.205 S 
HETATM   17  O1S SGN C   3      30.894  69.368  17.587  1.00 27.65    -0.578 OA
HETATM   18  O2S SGN C   3      32.336  70.367  19.299  1.00 27.72    -0.578 OA
HETATM   19  O3S SGN C   3      33.252  69.785  17.071  1.00 28.50    -0.578 OA
ENDBRANCH  14  16
ENDBRANCH   9  14
BRANCH  10  20
HETATM   20  O3  SGN C   3      30.896  73.647  19.417  1.00 34.89    -0.391 OA
ATOM     21  H3  SGN C   3      31.164  72.771  19.669  1.00  0.00     0.210 HD
ENDBRANCH  10  20
BRANCH  11  22
HETATM   22  O4  SGN C   3      31.339  76.394  18.457  1.00 37.13    -0.348 OA
BRANCH  22  23
HETATM   23  C1  UAP C   4      30.300  76.412  17.541  1.00 39.64     0.294 C 
HETATM   24  C2  UAP C   4      28.982  76.666  18.251  1.00 38.70     0.228 C 
HETATM   25  C3  UAP C   4      27.828  76.588  17.255  1.00 38.51     0.156 C 
HETATM   26  C4  UAP C   4      28.133  77.295  15.854  1.00 38.14     0.077 C 
HETATM   27  C5  UAP C   4      29.470  77.675  15.668  1.00 38.51     0.228 C 
HETATM   28  O5  UAP C   4      30.547  77.471  16.626  1.00 37.46    -0.343 OA
BRANCH  24  29
HETATM   29  O2  UAP C   4      28.751  75.637  19.266  1.00 40.54    -0.244 OA
BRANCH  29  30
HETATM   30  S   UAP C   4      28.465  76.032  20.791  1.00 40.49     0.252 S 
HETATM   31  O1S UAP C   4      28.123  74.789  21.498  1.00 40.89    -0.572 OA
HETATM   32  O2S UAP C   4      27.339  76.977  20.780  1.00 37.88    -0.572 OA
HETATM   33  O3S UAP C   4      29.695  76.643  21.317  1.00 37.47    -0.572 OA
ENDBRANCH  29  30
ENDBRANCH  24  29
BRANCH  25  34
HETATM   34  O3  UAP C   4      26.676  77.179  17.837  1.00 38.58    -0.393 OA
ATOM     35  H3  UAP C   4      26.923  78.001  18.245  1.00  0.00     0.210 HD
ENDBRANCH  25  34
BRANCH  27  36
HETATM   36  C6  UAP C   4      29.937  78.382  14.443  1.00 37.96     0.203 C 
HETATM   37  O6A UAP C   4      31.006  79.022  14.504  1.00 40.05    -0.646 OA
HETATM   38  O6B UAP C   4      29.237  78.305  13.411  1.00 36.71    -0.646 OA
ENDBRANCH  27  36
ENDBRANCH  22  23
ENDBRANCH  11  22
BRANCH  12  39
HETATM   39  C6  SGN C   3      33.968  76.791  17.120  1.00 42.65     0.227 C 
BRANCH  39  40
HETATM   40  O6  SGN C   3      34.940  76.532  18.156  1.00 51.09    -0.254 OA
BRANCH  40  41
HETATM   41  S2  SGN C   3      35.121  77.672  19.257  1.00 54.80     0.251 S 
HETATM   42  O4S SGN C   3      36.567  77.826  19.500  1.00 54.99    -0.572 OA
HETATM   43  O5S SGN C   3      34.401  77.204  20.479  1.00 53.99    -0.572 OA
HETATM   44  O6S SGN C   3      34.533  78.887  18.708  1.00 55.43    -0.572 OA
ENDBRANCH  40  41
ENDBRANCH  39  40
ENDBRANCH  12  39
ENDBRANCH   7   8
ENDBRANCH   4   7
BRANCH   3  45
HETATM   45  O3  IDS C   2      33.162  70.365  14.264  1.00 39.65    -0.390 OA
ATOM     46  H3  IDS C   2      33.776  70.071  13.602  1.00  0.00     0.210 HD
ENDBRANCH   3  45
BRANCH   5  47
HETATM   47  C6  IDS C   2      33.263  75.245  13.384  1.00 36.10     0.206 C 
HETATM   48  O6A IDS C   2      34.454  75.622  13.454  1.00 32.44    -0.646 OA
HETATM   49  O6B IDS C   2      32.277  75.992  13.597  1.00 33.44    -0.646 OA
ENDBRANCH   5  47
BRANCH   2  50
HETATM   50  O2  IDS C   2      31.616  70.079  11.960  1.00 43.59    -0.244 OA
BRANCH  50  51
HETATM   51  S   IDS C   2      32.415  68.936  11.184  1.00 44.11     0.252 S 
HETATM   52  O1S IDS C   2      33.427  69.627  10.314  1.00 44.48    -0.572 OA
HETATM   53  O2S IDS C   2      31.425  68.177  10.391  1.00 44.29    -0.572 OA
HETATM   54  O3S IDS C   2      33.048  68.105  12.192  1.00 44.74    -0.572 OA
ENDBRANCH  50  51
ENDBRANCH   2  50
BRANCH   1  55
HETATM   55  O4  SGN C   1      31.804  72.715  10.359  1.00 44.73    -0.348 OA
BRANCH  55  56
HETATM   56  C4  SGN C   1      30.797  73.254   9.474  1.00 48.25     0.186 C 
HETATM   57  C3  SGN C   1      31.234  74.636   8.972  1.00 48.43     0.178 C 
HETATM   58  C2  SGN C   1      30.253  75.145   7.917  1.00 48.58     0.181 C 
HETATM   59  C1  SGN C   1      30.054  74.126   6.796  1.00 50.40     0.283 C 
HETATM   60  O5  SGN C   1      29.646  72.866   7.343  1.00 50.82    -0.349 OA
HETATM   61  C5  SGN C   1      30.608  72.314   8.271  1.00 51.58     0.181 C 
BRANCH  57  62
HETATM   62  O3  SGN C   1      31.276  75.553  10.054  1.00 46.09    -0.391 OA
ATOM     63  H3  SGN C   1      31.940  76.211   9.882  1.00  0.00     0.210 HD
ENDBRANCH  57  62
BRANCH  58  64
HETATM   64  N2  SGN C   1      30.716  76.399   7.358  1.00 48.56    -0.289 N 
ATOM     65  H2  SGN C   1      31.573  76.474   6.811  1.00  0.00     0.175 HD
BRANCH  64  66
HETATM   66  S1  SGN C   1      29.743  77.697   7.681  1.00 47.67     0.205 S 
HETATM   67  O1S SGN C   1      29.887  77.988   9.124  1.00 47.59    -0.578 OA
HETATM   68  O2S SGN C   1      28.387  77.265   7.329  1.00 48.55    -0.578 OA
HETATM   69  O3S SGN C   1      30.223  78.808   6.830  1.00 47.08    -0.578 OA
ENDBRANCH  64  66
ENDBRANCH  58  64
BRANCH  59  70
HETATM   70  O1  SGN C   1      31.244  73.946   6.106  1.00 51.36    -0.369 OA
ATOM     71  H1  SGN C   1      31.971  73.918   6.717  1.00  0.00     0.212 HD
ENDBRANCH  59  70
BRANCH  61  72
HETATM   72  C6  SGN C   1      30.091  70.955   8.671  1.00 55.48     0.227 C 
BRANCH  72  73
HETATM   73  O6  SGN C   1      29.754  70.199   7.488  1.00 61.59    -0.254 OA
BRANCH  73  74
HETATM   74  S2  SGN C   1      28.375  69.405   7.563  1.00 65.98     0.251 S 
HETATM   75  O4S SGN C   1      28.515  68.361   8.673  1.00 65.09    -0.572 OA
HETATM   76  O5S SGN C   1      28.181  68.788   6.263  1.00 65.58    -0.572 OA
HETATM   77  O6S SGN C   1      27.259  70.449   7.883  1.00 65.84    -0.572 OA
ENDBRANCH  73  74
ENDBRANCH  72  73
ENDBRANCH  61  72
ENDBRANCH  55  56
ENDBRANCH   1  55
TORSDOF 27
ENDMDL
MODEL 12
REMARK VINA RESULT:      -7.1      3.977      9.147
REMARK  27 active torsions:
REMARK  status: ('A' for Active; 'I' for Inactive)
REMARK    1  A    between atoms: C1_1  and  O1_2 
REMARK    2  A    between atoms: S1_5  and  N2_7 
REMARK    3  A    between atoms: C2_6  and  N2_7 
REMARK    4  A    between atoms: S2_10  and  O6_22 
REMARK    5  A    between atoms: C3_11  and  O3_12 
REMARK    6  A    between atoms: C4_15  and  O4_16 
REMARK    7  A    between atoms: O4_16  and  C1_24 
REMARK    8  A    between atoms: C5_18  and  C6_21 
REMARK    9  A    between atoms: C6_21  and  O6_22 
REMARK   10  A    between atoms: C2_26  and  O2_27 
REMARK   11  A    between atoms: O2_27  and  S_40 
REMARK   12  A    between atoms: C3_29  and  O3_30 
REMARK   13  A    between atoms: C4_33  and  O4_34 
REMARK   14  A    between atoms: O4_34  and  C1_41 
REMARK   15  A    between atoms: C5_35  and  C6_37 
REMARK   16  A    between atoms: S1_43  and  N2_45 
REMARK   17  A    between atoms: C2_44  and  N2_45 
REMARK   18  A    between atoms: S2_48  and  O6_60 
REMARK   19  A    between atoms: C3_49  and  O3_50 
REMARK   20  A    between atoms: C4_53  and  O4_54 
REMARK   21  A    between atoms: O4_54  and  C1_62 
REMARK   22  A    between atoms: C5_56  and  C6_59 
REMARK   23  A    between atoms: C6_59  and  O6_60 
REMARK   24  A    between atoms: C2_64  and  O2_65 
REMARK   25  A    between atoms: O2_65  and  S_77 
REMARK   26  A    between atoms: C3_67  and  O3_68 
REMARK   27  A    between atoms: C5_72  and  C6_74 
ROOT
HETATM    1  C1  IDS C   2      28.588  79.918  13.906  1.00 40.81     0.294 C 
HETATM    2  C2  IDS C   2      29.418  80.674  14.947  1.00 40.20     0.231 C 
HETATM    3  C3  IDS C   2      30.379  79.734  15.670  1.00 39.01     0.185 C 
HETATM    4  C4  IDS C   2      29.612  78.614  16.401  1.00 37.65     0.195 C 
HETATM    5  C5  IDS C   2      28.215  78.453  15.786  1.00 35.99     0.257 C 
HETATM    6  O5  IDS C   2      28.300  78.573  14.346  1.00 39.00    -0.340 OA
ENDROOT
BRANCH   4   7
HETATM    7  O4  IDS C   2      30.346  77.368  16.298  1.00 35.98    -0.348 OA
BRANCH   7   8
HETATM    8  C1  SGN C   3      31.486  77.257  17.106  1.00 35.40     0.287 C 
HETATM    9  C2  SGN C   3      32.554  76.402  16.400  1.00 33.71     0.182 C 
HETATM   10  C3  SGN C   3      32.189  74.913  16.382  1.00 35.79     0.178 C 
HETATM   11  C4  SGN C   3      31.715  74.420  17.760  1.00 36.62     0.186 C 
HETATM   12  C5  SGN C   3      30.666  75.370  18.323  1.00 39.32     0.181 C 
HETATM   13  O5  SGN C   3      31.190  76.709  18.379  1.00 37.58    -0.349 OA
BRANCH   9  14
HETATM   14  N2  SGN C   3      32.715  76.859  15.038  1.00 29.28    -0.289 N 
ATOM     15  H2  SGN C   3      31.908  76.994  14.428  1.00  0.00     0.175 HD
BRANCH  14  16
HETATM   16  S1  SGN C   3      34.250  77.152  14.504  1.00 27.84     0.205 S 
HETATM   17  O1S SGN C   3      34.119  78.304  13.631  1.00 27.65    -0.578 OA
HETATM   18  O2S SGN C   3      34.653  75.916  13.771  1.00 27.72    -0.578 OA
HETATM   19  O3S SGN C   3      35.141  77.424  15.676  1.00 28.50    -0.578 OA
ENDBRANCH  14  16
ENDBRANCH   9  14
BRANCH  10  20
HETATM   20  O3  SGN C   3      33.316  74.153  15.951  1.00 34.89    -0.391 OA
ATOM     21  H3  SGN C   3      33.223  73.255  16.247  1.00  0.00     0.210 HD
ENDBRANCH  10  20
BRANCH  11  22
HETATM   22  O4  SGN C   3      31.123  73.117  17.618  1.00 37.13    -0.348 OA
BRANCH  22  23
HETATM   23  C1  UAP C   4      31.729  72.106  18.347  1.00 39.64     0.294 C 
HETATM   24  C2  UAP C   4      32.421  71.131  17.412  1.00 38.70     0.228 C 
HETATM   25  C3  UAP C   4      33.005  69.967  18.208  1.00 38.51     0.156 C 
HETATM   26  C4  UAP C   4      33.711  70.407  19.574  1.00 38.14     0.077 C 
HETATM   27  C5  UAP C   4      33.495  71.743  19.942  1.00 38.51     0.228 C 
HETATM   28  O5  UAP C   4      32.701  72.707  19.194  1.00 37.46    -0.343 OA
BRANCH  24  29
HETATM   29  O2  UAP C   4      31.455  70.569  16.466  1.00 40.54    -0.244 OA
BRANCH  29  30
HETATM   30  S   UAP C   4      31.740  70.582  14.891  1.00 40.49     0.252 S 
HETATM   31  O1S UAP C   4      32.136  71.953  14.539  1.00 40.89    -0.572 OA
HETATM   32  O2S UAP C   4      30.485  70.193  14.230  1.00 37.88    -0.572 OA
HETATM   33  O3S UAP C   4      32.820  69.615  14.639  1.00 37.47    -0.572 OA
ENDBRANCH  29  30
ENDBRANCH  24  29
BRANCH  25  34
HETATM   34  O3  UAP C   4      33.943  69.277  17.397  1.00 38.58    -0.393 OA
ATOM     35  H3  UAP C   4      34.319  68.563  17.898  1.00  0.00     0.210 HD
ENDBRANCH  25  34
BRANCH  27  36
HETATM   36  C6  UAP C   4      34.104  72.345  21.160  1.00 37.96     0.203 C 
HETATM   37  O6A UAP C   4      34.202  73.587  21.217  1.00 40.05    -0.646 OA
HETATM   38  O6B UAP C   4      34.491  71.580  22.069  1.00 36.71    -0.646 OA
ENDBRANCH  27  36
ENDBRANCH  22  23
ENDBRANCH  11  22
BRANCH  12  39
HETATM   39  C6  SGN C   3      30.198  75.022  19.709  1.00 42.65     0.227 C 
BRANCH  39  40
HETATM   40  O6  SGN C   3      28.821  75.452  19.776  1.00 51.09    -0.254 OA
BRANCH  40  41
HETATM   41  S2  SGN C   3      28.296  75.923  21.207  1.00 54.80     0.251 S 
HETATM   42  O4S SGN C   3      27.114  76.777  20.985  1.00 54.99    -0.572 OA
HETATM   43  O5S SGN C   3      29.414  76.679  21.845  1.00 53.99    -0.572 OA
HETATM   44  O6S SGN C   3      27.958  74.716  21.951  1.00 55.43    -0.572 OA
ENDBRANCH  40  41
ENDBRANCH  39  40
ENDBRANCH  12  39
ENDBRANCH   7   8
ENDBRANCH   4   7
BRANCH   3  45
HETATM   45  O3  IDS C   2      31.155  80.475  16.602  1.00 39.65    -0.390 OA
ATOM     46  H3  IDS C   2      32.041  80.569  16.273  1.00  0.00     0.210 HD
ENDBRANCH   3  45
BRANCH   5  47
HETATM   47  C6  IDS C   2      27.521  77.135  16.105  1.00 36.10     0.206 C 
HETATM   48  O6A IDS C   2      27.493  76.263  15.209  1.00 32.44    -0.646 OA
HETATM   49  O6B IDS C   2      27.027  76.984  17.248  1.00 33.44    -0.646 OA
ENDBRANCH   5  47
BRANCH   2  50
HETATM   50  O2  IDS C   2      30.203  81.712  14.290  1.00 43.59    -0.244 OA
BRANCH  50  51
HETATM   51  S   IDS C   2      30.577  83.042  15.089  1.00 44.11     0.252 S 
HETATM   52  O1S IDS C   2      32.046  82.965  15.396  1.00 44.48    -0.572 OA
HETATM   53  O2S IDS C   2      29.752  83.058  16.315  1.00 44.29    -0.572 OA
HETATM   54  O3S IDS C   2      30.266  84.159  14.216  1.00 44.74    -0.572 OA
ENDBRANCH  50  51
ENDBRANCH   2  50
BRANCH   1  55
HETATM   55  O4  SGN C   1      27.388  80.583  13.700  1.00 44.73    -0.348 OA
BRANCH  55  56
HETATM   56  C4  SGN C   1      26.742  80.419  12.418  1.00 48.25     0.186 C 
HETATM   57  C3  SGN C   1      25.311  79.907  12.620  1.00 48.43     0.178 C 
HETATM   58  C2  SGN C   1      24.571  79.879  11.283  1.00 48.58     0.181 C 
HETATM   59  C1  SGN C   1      24.639  81.230  10.574  1.00 50.40     0.283 C 
HETATM   60  O5  SGN C   1      26.005  81.638  10.422  1.00 50.82    -0.349 OA
HETATM   61  C5  SGN C   1      26.700  81.769  11.683  1.00 51.58     0.181 C 
BRANCH  57  62
HETATM   62  O3  SGN C   1      25.337  78.599  13.169  1.00 46.09    -0.391 OA
ATOM     63  H3  SGN C   1      24.893  78.602  14.009  1.00  0.00     0.210 HD
ENDBRANCH  57  62
BRANCH  58  64
HETATM   64  N2  SGN C   1      23.186  79.502  11.479  1.00 48.56    -0.289 N 
ATOM     65  H2  SGN C   1      22.665  79.740  12.323  1.00  0.00     0.175 HD
BRANCH  64  66
HETATM   66  S1  SGN C   1      22.519  78.656  10.224  1.00 47.67     0.205 S 
HETATM   67  O1S SGN C   1      22.090  79.653   9.219  1.00 47.59    -0.578 OA
HETATM   68  O2S SGN C   1      21.389  77.924  10.805  1.00 48.55    -0.578 OA
HETATM   69  O3S SGN C   1      23.575  77.756   9.712  1.00 47.08    -0.578 OA
ENDBRANCH  64  66
ENDBRANCH  58  64
BRANCH  59  70
HETATM   70  O1  SGN C   1      23.971  82.189  11.321  1.00 51.36    -0.369 OA
ATOM     71  H1  SGN C   1      24.582  82.634  11.897  1.00  0.00     0.212 HD
ENDBRANCH  59  70
BRANCH  61  72
HETATM   72  C6  SGN C   1      28.075  82.301  11.365  1.00 55.48     0.227 C 
BRANCH  72  73
HETATM   73  O6  SGN C   1      28.398  82.012   9.988  1.00 61.59    -0.254 OA
BRANCH  73  74
HETATM   74  S2  SGN C   1      29.504  80.885   9.775  1.00 65.98     0.251 S 
HETATM   75  O4S SGN C   1      30.338  81.295   8.559  1.00 65.09    -0.572 OA
HETATM   76  O5S SGN C   1      28.789  79.642   9.545  1.00 65.58    -0.572 OA
HETATM   77  O6S SGN C   1      30.361  80.829  11.078  1.00 65.84    -0.572 OA
ENDBRANCH  73  74
ENDBRANCH  72  73
ENDBRANCH  61  72
ENDBRANCH  55  56
ENDBRANCH   1  55
TORSDOF 27
ENDMDL
MODEL 13
REMARK VINA RESULT:      -7.0      3.323     11.314
REMARK  27 active torsions:
REMARK  status: ('A' for Active; 'I' for Inactive)
REMARK    1  A    between atoms: C1_1  and  O1_2 
REMARK    2  A    between atoms: S1_5  and  N2_7 
REMARK    3  A    between atoms: C2_6  and  N2_7 
REMARK    4  A    between atoms: S2_10  and  O6_22 
REMARK    5  A    between atoms: C3_11  and  O3_12 
REMARK    6  A    between atoms: C4_15  and  O4_16 
REMARK    7  A    between atoms: O4_16  and  C1_24 
REMARK    8  A    between atoms: C5_18  and  C6_21 
REMARK    9  A    between atoms: C6_21  and  O6_22 
REMARK   10  A    between atoms: C2_26  and  O2_27 
REMARK   11  A    between atoms: O2_27  and  S_40 
REMARK   12  A    between atoms: C3_29  and  O3_30 
REMARK   13  A    between atoms: C4_33  and  O4_34 
REMARK   14  A    between atoms: O4_34  and  C1_41 
REMARK   15  A    between atoms: C5_35  and  C6_37 
REMARK   16  A    between atoms: S1_43  and  N2_45 
REMARK   17  A    between atoms: C2_44  and  N2_45 
REMARK   18  A    between atoms: S2_48  and  O6_60 
REMARK   19  A    between atoms: C3_49  and  O3_50 
REMARK   20  A    between atoms: C4_53  and  O4_54 
REMARK   21  A    between atoms: O4_54  and  C1_62 
REMARK   22  A    between atoms: C5_56  and  C6_59 
REMARK   23  A    between atoms: C6_59  and  O6_60 
REMARK   24  A    between atoms: C2_64  and  O2_65 
REMARK   25  A    between atoms: O2_65  and  S_77 
REMARK   26  A    between atoms: C3_67  and  O3_68 
REMARK   27  A    between atoms: C5_72  and  C6_74 
ROOT
HETATM    1  C1  IDS C   2      36.300  70.616  21.659  1.00 40.81     0.294 C 
HETATM    2  C2  IDS C   2      35.002  70.692  22.468  1.00 40.20     0.231 C 
HETATM    3  C3  IDS C   2      33.829  71.107  21.584  1.00 39.01     0.185 C 
HETATM    4  C4  IDS C   2      34.074  72.492  20.953  1.00 37.65     0.195 C 
HETATM    5  C5  IDS C   2      35.576  72.808  20.957  1.00 35.99     0.257 C 
HETATM    6  O5  IDS C   2      36.325  71.617  20.618  1.00 39.00    -0.340 OA
ENDROOT
BRANCH   4   7
HETATM    7  O4  IDS C   2      33.568  72.510  19.595  1.00 35.98    -0.348 OA
BRANCH   7   8
HETATM    8  C1  SGN C   3      32.203  72.225  19.442  1.00 35.40     0.287 C 
HETATM    9  C2  SGN C   3      31.877  71.978  17.959  1.00 33.71     0.182 C 
HETATM   10  C3  SGN C   3      31.893  73.271  17.135  1.00 35.79     0.178 C 
HETATM   11  C4  SGN C   3      31.118  74.404  17.830  1.00 36.62     0.186 C 
HETATM   12  C5  SGN C   3      31.552  74.519  19.285  1.00 39.32     0.181 C 
HETATM   13  O5  SGN C   3      31.379  73.257  19.954  1.00 37.58    -0.349 OA
BRANCH   9  14
HETATM   14  N2  SGN C   3      32.842  71.058  17.398  1.00 29.28    -0.289 N 
ATOM     15  H2  SGN C   3      33.835  71.285  17.375  1.00  0.00     0.175 HD
BRANCH  14  16
HETATM   16  S1  SGN C   3      32.277  69.626  16.799  1.00 27.84     0.205 S 
HETATM   17  O1S SGN C   3      33.394  69.078  16.052  1.00 27.65    -0.578 OA
HETATM   18  O2S SGN C   3      31.124  69.995  15.924  1.00 27.72    -0.578 OA
HETATM   19  O3S SGN C   3      31.860  68.742  17.932  1.00 28.50    -0.578 OA
ENDBRANCH  14  16
ENDBRANCH   9  14
BRANCH  10  20
HETATM   20  O3  SGN C   3      31.341  73.020  15.845  1.00 34.89    -0.391 OA
ATOM     21  H3  SGN C   3      30.433  73.301  15.829  1.00  0.00     0.210 HD
ENDBRANCH  10  20
BRANCH  11  22
HETATM   22  O4  SGN C   3      31.405  75.649  17.167  1.00 37.13    -0.348 OA
BRANCH  22  23
HETATM   23  C1  UAP C   4      32.708  75.793  16.715  1.00 39.64     0.294 C 
HETATM   24  C2  UAP C   4      32.711  76.298  15.283  1.00 38.70     0.228 C 
HETATM   25  C3  UAP C   4      34.141  76.364  14.755  1.00 38.51     0.156 C 
HETATM   26  C4  UAP C   4      35.195  76.939  15.810  1.00 38.14     0.077 C 
HETATM   27  C5  UAP C   4      34.701  77.082  17.114  1.00 38.51     0.228 C 
HETATM   28  O5  UAP C   4      33.351  76.750  17.547  1.00 37.46    -0.343 OA
BRANCH  24  29
HETATM   29  O2  UAP C   4      31.971  75.373  14.423  1.00 40.54    -0.244 OA
BRANCH  29  30
HETATM   30  S   UAP C   4      30.629  75.832  13.680  1.00 40.49     0.252 S 
HETATM   31  O1S UAP C   4      29.610  74.811  13.965  1.00 40.89    -0.572 OA
HETATM   32  O2S UAP C   4      30.941  75.900  12.244  1.00 37.88    -0.572 OA
HETATM   33  O3S UAP C   4      30.260  77.147  14.227  1.00 37.47    -0.572 OA
ENDBRANCH  29  30
ENDBRANCH  24  29
BRANCH  25  34
HETATM   34  O3  UAP C   4      34.164  77.166  13.584  1.00 38.58    -0.393 OA
ATOM     35  H3  UAP C   4      33.301  77.157  13.187  1.00  0.00     0.210 HD
ENDBRANCH  25  34
BRANCH  27  36
HETATM   36  C6  UAP C   4      35.522  77.640  18.224  1.00 37.96     0.203 C 
HETATM   37  O6A UAP C   4      34.957  78.363  19.069  1.00 40.05    -0.646 OA
HETATM   38  O6B UAP C   4      36.739  77.360  18.258  1.00 36.71    -0.646 OA
ENDBRANCH  27  36
ENDBRANCH  22  23
ENDBRANCH  11  22
BRANCH  12  39
HETATM   39  C6  SGN C   3      30.791  75.546  20.077  1.00 42.65     0.227 C 
BRANCH  39  40
HETATM   40  O6  SGN C   3      29.425  75.078  20.114  1.00 51.09    -0.254 OA
BRANCH  40  41
HETATM   41  S2  SGN C   3      28.443  75.839  21.115  1.00 54.80     0.251 S 
HETATM   42  O4S SGN C   3      29.267  76.737  21.945  1.00 54.99    -0.572 OA
HETATM   43  O5S SGN C   3      27.771  74.787  21.936  1.00 53.99    -0.572 OA
HETATM   44  O6S SGN C   3      27.495  76.581  20.295  1.00 55.43    -0.572 OA
ENDBRANCH  40  41
ENDBRANCH  39  40
ENDBRANCH  12  39
ENDBRANCH   7   8
ENDBRANCH   4   7
BRANCH   3  45
HETATM   45  O3  IDS C   2      32.638  71.134  22.359  1.00 39.65    -0.390 OA
ATOM     46  H3  IDS C   2      32.826  71.497  23.216  1.00  0.00     0.210 HD
ENDBRANCH   3  45
BRANCH   5  47
HETATM   47  C6  IDS C   2      36.003  73.916  20.004  1.00 36.10     0.206 C 
HETATM   48  O6A IDS C   2      35.350  74.983  20.025  1.00 32.44    -0.646 OA
HETATM   49  O6B IDS C   2      36.991  73.713  19.259  1.00 33.44    -0.646 OA
ENDBRANCH   5  47
BRANCH   2  50
HETATM   50  O2  IDS C   2      34.703  69.386  23.040  1.00 43.59    -0.244 OA
BRANCH  50  51
HETATM   51  S   IDS C   2      34.559  69.233  24.622  1.00 44.11     0.252 S 
HETATM   52  O1S IDS C   2      33.752  67.989  24.866  1.00 44.48    -0.572 OA
HETATM   53  O2S IDS C   2      33.876  70.447  25.116  1.00 44.29    -0.572 OA
HETATM   54  O3S IDS C   2      35.904  69.117  25.158  1.00 44.74    -0.572 OA
ENDBRANCH  50  51
ENDBRANCH   2  50
BRANCH   1  55
HETATM   55  O4  SGN C   1      37.382  70.827  22.501  1.00 44.73    -0.348 OA
BRANCH  55  56
HETATM   56  C4  SGN C   1      38.673  70.347  22.065  1.00 48.25     0.186 C 
HETATM   57  C3  SGN C   1      39.633  71.530  21.886  1.00 48.43     0.178 C 
HETATM   58  C2  SGN C   1      41.040  71.022  21.576  1.00 48.58     0.181 C 
HETATM   59  C1  SGN C   1      41.513  70.008  22.617  1.00 50.40     0.283 C 
HETATM   60  O5  SGN C   1      40.568  68.936  22.724  1.00 50.82    -0.349 OA
HETATM   61  C5  SGN C   1      39.249  69.382  23.115  1.00 51.58     0.181 C 
BRANCH  57  62
HETATM   62  O3  SGN C   1      39.188  72.357  20.822  1.00 46.09    -0.391 OA
ATOM     63  H3  SGN C   1      39.889  72.455  20.187  1.00  0.00     0.210 HD
ENDBRANCH  57  62
BRANCH  58  64
HETATM   64  N2  SGN C   1      41.975  72.127  21.515  1.00 48.56    -0.289 N 
ATOM     65  H2  SGN C   1      42.166  72.732  22.313  1.00  0.00     0.175 HD
BRANCH  64  66
HETATM   66  S1  SGN C   1      42.706  72.328  20.044  1.00 47.67     0.205 S 
HETATM   67  O1S SGN C   1      43.621  71.179  19.864  1.00 47.59    -0.578 OA
HETATM   68  O2S SGN C   1      43.421  73.604  20.135  1.00 48.55    -0.578 OA
HETATM   69  O3S SGN C   1      41.626  72.353  19.034  1.00 47.08    -0.578 OA
ENDBRANCH  64  66
ENDBRANCH  58  64
BRANCH  59  70
HETATM   70  O1  SGN C   1      41.630  70.622  23.855  1.00 51.36    -0.369 OA
ATOM     71  H1  SGN C   1      41.740  71.559  23.742  1.00  0.00     0.212 HD
ENDBRANCH  59  70
BRANCH  61  72
HETATM   72  C6  SGN C   1      38.408  68.142  23.287  1.00 55.48     0.227 C 
BRANCH  72  73
HETATM   73  O6  SGN C   1      38.787  67.467  24.506  1.00 61.59    -0.254 OA
BRANCH  73  74
HETATM   74  S2  SGN C   1      38.933  65.884  24.386  1.00 65.98     0.251 S 
HETATM   75  O4S SGN C   1      37.521  65.309  24.253  1.00 65.09    -0.572 OA
HETATM   76  O5S SGN C   1      39.588  65.436  25.601  1.00 65.58    -0.572 OA
HETATM   77  O6S SGN C   1      39.800  65.597  23.120  1.00 65.84    -0.572 OA
ENDBRANCH  73  74
ENDBRANCH  72  73
ENDBRANCH  61  72
ENDBRANCH  55  56
ENDBRANCH   1  55
TORSDOF 27
ENDMDL
MODEL 14
REMARK VINA RESULT:      -6.9     11.290     19.140
REMARK  27 active torsions:
REMARK  status: ('A' for Active; 'I' for Inactive)
REMARK    1  A    between atoms: C1_1  and  O1_2 
REMARK    2  A    between atoms: S1_5  and  N2_7 
REMARK    3  A    between atoms: C2_6  and  N2_7 
REMARK    4  A    between atoms: S2_10  and  O6_22 
REMARK    5  A    between atoms: C3_11  and  O3_12 
REMARK    6  A    between atoms: C4_15  and  O4_16 
REMARK    7  A    between atoms: O4_16  and  C1_24 
REMARK    8  A    between atoms: C5_18  and  C6_21 
REMARK    9  A    between atoms: C6_21  and  O6_22 
REMARK   10  A    between atoms: C2_26  and  O2_27 
REMARK   11  A    between atoms: O2_27  and  S_40 
REMARK   12  A    between atoms: C3_29  and  O3_30 
REMARK   13  A    between atoms: C4_33  and  O4_34 
REMARK   14  A    between atoms: O4_34  and  C1_41 
REMARK   15  A    between atoms: C5_35  and  C6_37 
REMARK   16  A    between atoms: S1_43  and  N2_45 
REMARK   17  A    between atoms: C2_44  and  N2_45 
REMARK   18  A    between atoms: S2_48  and  O6_60 
REMARK   19  A    between atoms: C3_49  and  O3_50 
REMARK   20  A    between atoms: C4_53  and  O4_54 
REMARK   21  A    between atoms: O4_54  and  C1_62 
REMARK   22  A    between atoms: C5_56  and  C6_59 
REMARK   23  A    between atoms: C6_59  and  O6_60 
REMARK   24  A    between atoms: C2_64  and  O2_65 
REMARK   25  A    between atoms: O2_65  and  S_77 
REMARK   26  A    between atoms: C3_67  and  O3_68 
REMARK   27  A    between atoms: C5_72  and  C6_74 
ROOT
HETATM    1  C1  IDS C   2      27.436  81.836  13.676  1.00 40.81     0.294 C 
HETATM    2  C2  IDS C   2      28.936  81.846  13.985  1.00 40.20     0.231 C 
HETATM    3  C3  IDS C   2      29.432  83.266  14.245  1.00 39.01     0.185 C 
HETATM    4  C4  IDS C   2      29.196  84.168  13.016  1.00 37.65     0.195 C 
HETATM    5  C5  IDS C   2      28.103  83.562  12.128  1.00 35.99     0.257 C 
HETATM    6  O5  IDS C   2      27.044  83.025  12.956  1.00 39.00    -0.340 OA
ENDROOT
BRANCH   4   7
HETATM    7  O4  IDS C   2      28.806  85.495  13.449  1.00 35.98    -0.348 OA
BRANCH   7   8
HETATM    8  C1  SGN C   3      29.852  86.383  13.735  1.00 35.40     0.287 C 
HETATM    9  C2  SGN C   3      29.394  87.426  14.770  1.00 33.71     0.182 C 
HETATM   10  C3  SGN C   3      28.430  88.456  14.171  1.00 35.79     0.178 C 
HETATM   11  C4  SGN C   3      28.935  89.001  12.824  1.00 36.62     0.186 C 
HETATM   12  C5  SGN C   3      29.351  87.850  11.916  1.00 39.32     0.181 C 
HETATM   13  O5  SGN C   3      30.336  87.033  12.573  1.00 37.58    -0.349 OA
BRANCH   9  14
HETATM   14  N2  SGN C   3      28.735  86.757  15.870  1.00 29.28    -0.289 N 
ATOM     15  H2  SGN C   3      28.334  85.827  15.758  1.00  0.00     0.175 HD
BRANCH  14  16
HETATM   16  S1  SGN C   3      28.656  87.555  17.314  1.00 27.84     0.205 S 
HETATM   17  O1S SGN C   3      27.314  88.104  17.354  1.00 27.65    -0.578 OA
HETATM   18  O2S SGN C   3      29.709  88.610  17.238  1.00 27.72    -0.578 OA
HETATM   19  O3S SGN C   3      28.910  86.590  18.430  1.00 28.50    -0.578 OA
ENDBRANCH  14  16
ENDBRANCH   9  14
BRANCH  10  20
HETATM   20  O3  SGN C   3      28.245  89.527  15.093  1.00 34.89    -0.391 OA
ATOM     21  H3  SGN C   3      27.788  89.208  15.862  1.00  0.00     0.210 HD
ENDBRANCH  10  20
BRANCH  11  22
HETATM   22  O4  SGN C   3      27.874  89.731  12.181  1.00 37.13    -0.348 OA
BRANCH  22  23
HETATM   23  C1  UAP C   4      28.113  91.084  11.995  1.00 39.64     0.294 C 
HETATM   24  C2  UAP C   4      26.879  91.887  12.367  1.00 38.70     0.228 C 
HETATM   25  C3  UAP C   4      27.109  93.366  12.071  1.00 38.51     0.156 C 
HETATM   26  C4  UAP C   4      28.562  93.891  12.482  1.00 38.14     0.077 C 
HETATM   27  C5  UAP C   4      29.470  92.884  12.838  1.00 38.51     0.228 C 
HETATM   28  O5  UAP C   4      29.186  91.456  12.850  1.00 37.46    -0.343 OA
BRANCH  24  29
HETATM   29  O2  UAP C   4      25.735  91.454  11.563  1.00 40.54    -0.244 OA
BRANCH  29  30
HETATM   30  S   UAP C   4      24.323  91.130  12.244  1.00 40.49     0.252 S 
HETATM   31  O1S UAP C   4      23.444  90.616  11.184  1.00 40.89    -0.572 OA
HETATM   32  O2S UAP C   4      23.820  92.395  12.800  1.00 37.88    -0.572 OA
HETATM   33  O3S UAP C   4      24.568  90.126  13.291  1.00 37.47    -0.572 OA
ENDBRANCH  29  30
ENDBRANCH  24  29
BRANCH  25  34
HETATM   34  O3  UAP C   4      26.125  94.131  12.749  1.00 38.58    -0.393 OA
ATOM     35  H3  UAP C   4      25.469  93.544  13.106  1.00  0.00     0.210 HD
ENDBRANCH  25  34
BRANCH  27  36
HETATM   36  C6  UAP C   4      30.859  93.181  13.288  1.00 37.96     0.203 C 
HETATM   37  O6A UAP C   4      31.302  92.564  14.277  1.00 40.05    -0.646 OA
HETATM   38  O6B UAP C   4      31.515  94.036  12.656  1.00 36.71    -0.646 OA
ENDBRANCH  27  36
ENDBRANCH  22  23
ENDBRANCH  11  22
BRANCH  12  39
HETATM   39  C6  SGN C   3      29.940  88.282  10.602  1.00 42.65     0.227 C 
BRANCH  39  40
HETATM   40  O6  SGN C   3      30.825  89.380  10.913  1.00 51.09    -0.254 OA
BRANCH  40  41
HETATM   41  S2  SGN C   3      31.261  90.306   9.689  1.00 54.80     0.251 S 
HETATM   42  O4S SGN C   3      30.048  90.597   8.902  1.00 54.99    -0.572 OA
HETATM   43  O5S SGN C   3      32.260  89.527   8.898  1.00 53.99    -0.572 OA
HETATM   44  O6S SGN C   3      31.838  91.516  10.259  1.00 55.43    -0.572 OA
ENDBRANCH  40  41
ENDBRANCH  39  40
ENDBRANCH  12  39
ENDBRANCH   7   8
ENDBRANCH   4   7
BRANCH   3  45
HETATM   45  O3  IDS C   2      30.817  83.233  14.561  1.00 39.65    -0.390 OA
ATOM     46  H3  IDS C   2      31.326  83.280  13.760  1.00  0.00     0.210 HD
ENDBRANCH   3  45
BRANCH   5  47
HETATM   47  C6  IDS C   2      27.474  84.528  11.133  1.00 36.10     0.206 C 
HETATM   48  O6A IDS C   2      26.291  84.881  11.337  1.00 32.44    -0.646 OA
HETATM   49  O6B IDS C   2      28.171  84.933  10.173  1.00 33.44    -0.646 OA
ENDBRANCH   5  47
BRANCH   2  50
HETATM   50  O2  IDS C   2      29.198  81.047  15.175  1.00 43.59    -0.244 OA
BRANCH  50  51
HETATM   51  S   IDS C   2      30.243  79.843  15.101  1.00 44.11     0.252 S 
HETATM   52  O1S IDS C   2      29.492  78.647  14.585  1.00 44.48    -0.572 OA
HETATM   53  O2S IDS C   2      30.755  79.629  16.471  1.00 44.29    -0.572 OA
HETATM   54  O3S IDS C   2      31.296  80.254  14.191  1.00 44.74    -0.572 OA
ENDBRANCH  50  51
ENDBRANCH   2  50
BRANCH   1  55
HETATM   55  O4  SGN C   1      27.131  80.727  12.900  1.00 44.73    -0.348 OA
BRANCH  55  56
HETATM   56  C4  SGN C   1      25.742  80.494  12.582  1.00 48.25     0.186 C 
HETATM   57  C3  SGN C   1      25.577  80.328  11.066  1.00 48.43     0.178 C 
HETATM   58  C2  SGN C   1      24.140  79.928  10.735  1.00 48.58     0.181 C 
HETATM   59  C1  SGN C   1      23.702  78.700  11.532  1.00 50.40     0.283 C 
HETATM   60  O5  SGN C   1      23.883  78.932  12.934  1.00 50.82    -0.349 OA
HETATM   61  C5  SGN C   1      25.257  79.216  13.287  1.00 51.58     0.181 C 
BRANCH  57  62
HETATM   62  O3  SGN C   1      25.887  81.548  10.410  1.00 46.09    -0.391 OA
ATOM     63  H3  SGN C   1      25.463  81.563   9.559  1.00  0.00     0.210 HD
ENDBRANCH  57  62
BRANCH  58  64
HETATM   64  N2  SGN C   1      24.003  79.662   9.318  1.00 48.56    -0.289 N 
ATOM     65  H2  SGN C   1      24.520  78.922   8.843  1.00  0.00     0.175 HD
BRANCH  64  66
HETATM   66  S1  SGN C   1      22.941  80.657   8.531  1.00 47.67     0.205 S 
HETATM   67  O1S SGN C   1      23.157  82.019   9.067  1.00 47.59    -0.578 OA
HETATM   68  O2S SGN C   1      21.608  80.135   8.850  1.00 48.55    -0.578 OA
HETATM   69  O3S SGN C   1      23.258  80.560   7.090  1.00 47.08    -0.578 OA
ENDBRANCH  64  66
ENDBRANCH  58  64
BRANCH  59  70
HETATM   70  O1  SGN C   1      24.463  77.601  11.162  1.00 51.36    -0.369 OA
ATOM     71  H1  SGN C   1      23.977  77.064  10.548  1.00  0.00     0.212 HD
ENDBRANCH  59  70
BRANCH  61  72
HETATM   72  C6  SGN C   1      25.301  79.329  14.791  1.00 55.48     0.227 C 
BRANCH  72  73
HETATM   73  O6  SGN C   1      26.262  78.390  15.317  1.00 61.59    -0.254 OA
BRANCH  73  74
HETATM   74  S2  SGN C   1      25.742  77.500  16.533  1.00 65.98     0.251 S 
HETATM   75  O4S SGN C   1      25.392  76.122  15.966  1.00 65.09    -0.572 OA
HETATM   76  O5S SGN C   1      24.576  78.175  17.070  1.00 65.58    -0.572 OA
HETATM   77  O6S SGN C   1      26.901  77.423  17.576  1.00 65.84    -0.572 OA
ENDBRANCH  73  74
ENDBRANCH  72  73
ENDBRANCH  61  72
ENDBRANCH  55  56
ENDBRANCH   1  55
TORSDOF 27
ENDMDL
MODEL 15
REMARK VINA RESULT:      -6.8      3.727      7.911
REMARK  27 active torsions:
REMARK  status: ('A' for Active; 'I' for Inactive)
REMARK    1  A    between atoms: C1_1  and  O1_2 
REMARK    2  A    between atoms: S1_5  and  N2_7 
REMARK    3  A    between atoms: C2_6  and  N2_7 
REMARK    4  A    between atoms: S2_10  and  O6_22 
REMARK    5  A    between atoms: C3_11  and  O3_12 
REMARK    6  A    between atoms: C4_15  and  O4_16 
REMARK    7  A    between atoms: O4_16  and  C1_24 
REMARK    8  A    between atoms: C5_18  and  C6_21 
REMARK    9  A    between atoms: C6_21  and  O6_22 
REMARK   10  A    between atoms: C2_26  and  O2_27 
REMARK   11  A    between atoms: O2_27  and  S_40 
REMARK   12  A    between atoms: C3_29  and  O3_30 
REMARK   13  A    between atoms: C4_33  and  O4_34 
REMARK   14  A    between atoms: O4_34  and  C1_41 
REMARK   15  A    between atoms: C5_35  and  C6_37 
REMARK   16  A    between atoms: S1_43  and  N2_45 
REMARK   17  A    between atoms: C2_44  and  N2_45 
REMARK   18  A    between atoms: S2_48  and  O6_60 
REMARK   19  A    between atoms: C3_49  and  O3_50 
REMARK   20  A    between atoms: C4_53  and  O4_54 
REMARK   21  A    between atoms: O4_54  and  C1_62 
REMARK   22  A    between atoms: C5_56  and  C6_59 
REMARK   23  A    between atoms: C6_59  and  O6_60 
REMARK   24  A    between atoms: C2_64  and  O2_65 
REMARK   25  A    between atoms: O2_65  and  S_77 
REMARK   26  A    between atoms: C3_67  and  O3_68 
REMARK   27  A    between atoms: C5_72  and  C6_74 
ROOT
HETATM    1  C1  IDS C   2      31.798  73.376  14.751  1.00 40.81     0.294 C 
HETATM    2  C2  IDS C   2      30.997  74.244  15.725  1.00 40.20     0.231 C 
HETATM    3  C3  IDS C   2      31.608  74.207  17.123  1.00 39.01     0.185 C 
HETATM    4  C4  IDS C   2      31.629  72.769  17.679  1.00 37.65     0.195 C 
HETATM    5  C5  IDS C   2      31.534  71.762  16.525  1.00 35.99     0.257 C 
HETATM    6  O5  IDS C   2      32.345  72.216  15.415  1.00 39.00    -0.340 OA
ENDROOT
BRANCH   4   7
HETATM    7  O4  IDS C   2      32.851  72.550  18.429  1.00 35.98    -0.348 OA
BRANCH   7   8
HETATM    8  C1  SGN C   3      32.754  72.692  19.820  1.00 35.40     0.287 C 
HETATM    9  C2  SGN C   3      33.989  73.432  20.364  1.00 33.71     0.182 C 
HETATM   10  C3  SGN C   3      35.246  72.555  20.350  1.00 35.79     0.178 C 
HETATM   11  C4  SGN C   3      34.977  71.154  20.926  1.00 36.62     0.186 C 
HETATM   12  C5  SGN C   3      33.726  70.560  20.291  1.00 39.32     0.181 C 
HETATM   13  O5  SGN C   3      32.608  71.445  20.477  1.00 37.58    -0.349 OA
BRANCH   9  14
HETATM   14  N2  SGN C   3      34.235  74.612  19.565  1.00 29.28    -0.289 N 
ATOM     15  H2  SGN C   3      34.687  74.546  18.653  1.00  0.00     0.175 HD
BRANCH  14  16
HETATM   16  S1  SGN C   3      33.760  76.068  20.182  1.00 27.84     0.205 S 
HETATM   17  O1S SGN C   3      34.922  76.924  20.032  1.00 27.65    -0.578 OA
HETATM   18  O2S SGN C   3      33.423  75.798  21.610  1.00 27.72    -0.578 OA
HETATM   19  O3S SGN C   3      32.579  76.573  19.413  1.00 28.50    -0.578 OA
ENDBRANCH  14  16
ENDBRANCH   9  14
BRANCH  10  20
HETATM   20  O3  SGN C   3      36.281  73.198  21.091  1.00 34.89    -0.391 OA
ATOM     21  H3  SGN C   3      36.804  72.542  21.538  1.00  0.00     0.210 HD
ENDBRANCH  10  20
BRANCH  11  22
HETATM   22  O4  SGN C   3      36.093  70.298  20.627  1.00 37.13    -0.348 OA
BRANCH  22  23
HETATM   23  C1  UAP C   4      36.735  69.753  21.729  1.00 39.64     0.294 C 
HETATM   24  C2  UAP C   4      37.981  70.555  22.057  1.00 38.70     0.228 C 
HETATM   25  C3  UAP C   4      38.738  69.898  23.207  1.00 38.51     0.156 C 
HETATM   26  C4  UAP C   4      37.795  69.366  24.383  1.00 38.14     0.077 C 
HETATM   27  C5  UAP C   4      36.424  69.377  24.086  1.00 38.51     0.228 C 
HETATM   28  O5  UAP C   4      35.837  69.818  22.829  1.00 37.46    -0.343 OA
BRANCH  24  29
HETATM   29  O2  UAP C   4      38.881  70.581  20.902  1.00 40.54    -0.244 OA
BRANCH  29  30
HETATM   30  S   UAP C   4      39.443  71.964  20.325  1.00 40.49     0.252 S 
HETATM   31  O1S UAP C   4      39.374  72.944  21.419  1.00 40.89    -0.572 OA
HETATM   32  O2S UAP C   4      38.571  72.341  19.203  1.00 37.88    -0.572 OA
HETATM   33  O3S UAP C   4      40.828  71.721  19.891  1.00 37.47    -0.572 OA
ENDBRANCH  29  30
ENDBRANCH  24  29
BRANCH  25  34
HETATM   34  O3  UAP C   4      39.669  70.828  23.738  1.00 38.58    -0.393 OA
ATOM     35  H3  UAP C   4      40.532  70.634  23.391  1.00  0.00     0.210 HD
ENDBRANCH  25  34
BRANCH  27  36
HETATM   36  C6  UAP C   4      35.388  68.956  25.070  1.00 37.96     0.203 C 
HETATM   37  O6A UAP C   4      34.722  69.843  25.638  1.00 40.05    -0.646 OA
HETATM   38  O6B UAP C   4      35.237  67.734  25.282  1.00 36.71    -0.646 OA
ENDBRANCH  27  36
ENDBRANCH  22  23
ENDBRANCH  11  22
BRANCH  12  39
HETATM   39  C6  SGN C   3      33.328  69.222  20.849  1.00 42.65     0.227 C 
BRANCH  39  40
HETATM   40  O6  SGN C   3      33.058  68.386  19.702  1.00 51.09    -0.254 OA
BRANCH  40  41
HETATM   41  S2  SGN C   3      33.547  66.870  19.800  1.00 54.80     0.251 S 
HETATM   42  O4S SGN C   3      34.948  66.887  20.261  1.00 54.99    -0.572 OA
HETATM   43  O5S SGN C   3      33.422  66.292  18.429  1.00 53.99    -0.572 OA
HETATM   44  O6S SGN C   3      32.673  66.204  20.757  1.00 55.43    -0.572 OA
ENDBRANCH  40  41
ENDBRANCH  39  40
ENDBRANCH  12  39
ENDBRANCH   7   8
ENDBRANCH   4   7
BRANCH   3  45
HETATM   45  O3  IDS C   2      30.860  75.048  17.990  1.00 39.65    -0.390 OA
ATOM     46  H3  IDS C   2      30.779  75.911  17.602  1.00  0.00     0.210 HD
ENDBRANCH   3  45
BRANCH   5  47
HETATM   47  C6  IDS C   2      31.967  70.344  16.871  1.00 36.10     0.206 C 
HETATM   48  O6A IDS C   2      33.105  69.979  16.503  1.00 32.44    -0.646 OA
HETATM   49  O6B IDS C   2      31.172  69.620  17.518  1.00 33.44    -0.646 OA
ENDBRANCH   5  47
BRANCH   2  50
HETATM   50  O2  IDS C   2      30.996  75.626  15.265  1.00 43.59    -0.244 OA
BRANCH  50  51
HETATM   51  S   IDS C   2      29.616  76.323  14.865  1.00 44.11     0.252 S 
HETATM   52  O1S IDS C   2      28.740  76.282  16.085  1.00 44.48    -0.572 OA
HETATM   53  O2S IDS C   2      29.047  75.547  13.743  1.00 44.29    -0.572 OA
HETATM   54  O3S IDS C   2      29.931  77.685  14.471  1.00 44.74    -0.572 OA
ENDBRANCH  50  51
ENDBRANCH   2  50
BRANCH   1  55
HETATM   55  O4  SGN C   1      30.970  72.948  13.724  1.00 44.73    -0.348 OA
BRANCH  55  56
HETATM   56  C4  SGN C   1      31.507  71.990  12.785  1.00 48.25     0.186 C 
HETATM   57  C3  SGN C   1      30.532  70.816  12.628  1.00 48.43     0.178 C 
HETATM   58  C2  SGN C   1      31.017  69.877  11.525  1.00 48.58     0.181 C 
HETATM   59  C1  SGN C   1      31.278  70.629  10.221  1.00 50.40     0.283 C 
HETATM   60  O5  SGN C   1      32.196  71.706  10.448  1.00 50.82    -0.349 OA
HETATM   61  C5  SGN C   1      31.714  72.664  11.418  1.00 51.58     0.181 C 
BRANCH  57  62
HETATM   62  O3  SGN C   1      30.440  70.098  13.848  1.00 46.09    -0.391 OA
ATOM     63  H3  SGN C   1      29.721  70.446  14.364  1.00  0.00     0.210 HD
ENDBRANCH  57  62
BRANCH  58  64
HETATM   64  N2  SGN C   1      30.048  68.826  11.294  1.00 48.56    -0.289 N 
ATOM     65  H2  SGN C   1      29.043  68.970  11.395  1.00  0.00     0.175 HD
BRANCH  64  66
HETATM   66  S1  SGN C   1      30.702  67.372  10.852  1.00 47.67     0.205 S 
HETATM   67  O1S SGN C   1      30.691  67.332   9.373  1.00 47.59    -0.578 OA
HETATM   68  O2S SGN C   1      29.829  66.354  11.446  1.00 48.55    -0.578 OA
HETATM   69  O3S SGN C   1      32.073  67.338  11.408  1.00 47.08    -0.578 OA
ENDBRANCH  64  66
ENDBRANCH  58  64
BRANCH  59  70
HETATM   70  O1  SGN C   1      30.090  71.155   9.733  1.00 51.36    -0.369 OA
ATOM     71  H1  SGN C   1      29.975  70.904   8.824  1.00  0.00     0.212 HD
ENDBRANCH  59  70
BRANCH  61  72
HETATM   72  C6  SGN C   1      32.730  73.777  11.467  1.00 55.48     0.227 C 
BRANCH  72  73
HETATM   73  O6  SGN C   1      32.323  74.842  10.580  1.00 61.59    -0.254 OA
BRANCH  73  74
HETATM   74  S2  SGN C   1      32.261  76.289  11.245  1.00 65.98     0.251 S 
HETATM   75  O4S SGN C   1      30.798  76.736  11.219  1.00 65.09    -0.572 OA
HETATM   76  O5S SGN C   1      33.104  77.152  10.437  1.00 65.58    -0.572 OA
HETATM   77  O6S SGN C   1      32.801  76.149  12.703  1.00 65.84    -0.572 OA
ENDBRANCH  73  74
ENDBRANCH  72  73
ENDBRANCH  61  72
ENDBRANCH  55  56
ENDBRANCH   1  55
TORSDOF 27
ENDMDL
MODEL 16
REMARK VINA RESULT:      -6.8      3.899     10.821
REMARK  27 active torsions:
REMARK  status: ('A' for Active; 'I' for Inactive)
REMARK    1  A    between atoms: C1_1  and  O1_2 
REMARK    2  A    between atoms: S1_5  and  N2_7 
REMARK    3  A    between atoms: C2_6  and  N2_7 
REMARK    4  A    between atoms: S2_10  and  O6_22 
REMARK    5  A    between atoms: C3_11  and  O3_12 
REMARK    6  A    between atoms: C4_15  and  O4_16 
REMARK    7  A    between atoms: O4_16  and  C1_24 
REMARK    8  A    between atoms: C5_18  and  C6_21 
REMARK    9  A    between atoms: C6_21  and  O6_22 
REMARK   10  A    between atoms: C2_26  and  O2_27 
REMARK   11  A    between atoms: O2_27  and  S_40 
REMARK   12  A    between atoms: C3_29  and  O3_30 
REMARK   13  A    between atoms: C4_33  and  O4_34 
REMARK   14  A    between atoms: O4_34  and  C1_41 
REMARK   15  A    between atoms: C5_35  and  C6_37 
REMARK   16  A    between atoms: S1_43  and  N2_45 
REMARK   17  A    between atoms: C2_44  and  N2_45 
REMARK   18  A    between atoms: S2_48  and  O6_60 
REMARK   19  A    between atoms: C3_49  and  O3_50 
REMARK   20  A    between atoms: C4_53  and  O4_54 
REMARK   21  A    between atoms: O4_54  and  C1_62 
REMARK   22  A    between atoms: C5_56  and  C6_59 
REMARK   23  A    between atoms: C6_59  and  O6_60 
REMARK   24  A    between atoms: C2_64  and  O2_65 
REMARK   25  A    between atoms: O2_65  and  S_77 
REMARK   26  A    between atoms: C3_67  and  O3_68 
REMARK   27  A    between atoms: C5_72  and  C6_74 
ROOT
HETATM    1  C1  IDS C   2      31.077  74.432  18.745  1.00 40.81     0.294 C 
HETATM    2  C2  IDS C   2      30.340  75.763  18.919  1.00 40.20     0.231 C 
HETATM    3  C3  IDS C   2      30.226  76.504  17.590  1.00 39.01     0.185 C 
HETATM    4  C4  IDS C   2      31.620  76.809  17.006  1.00 37.65     0.195 C 
HETATM    5  C5  IDS C   2      32.660  75.861  17.618  1.00 35.99     0.257 C 
HETATM    6  O5  IDS C   2      32.100  74.531  17.730  1.00 39.00    -0.340 OA
ENDROOT
BRANCH   4   7
HETATM    7  O4  IDS C   2      31.594  76.653  15.565  1.00 35.98    -0.348 OA
BRANCH   7   8
HETATM    8  C1  SGN C   3      31.688  77.834  14.815  1.00 35.40     0.287 C 
HETATM    9  C2  SGN C   3      30.724  77.779  13.617  1.00 33.71     0.182 C 
HETATM   10  C3  SGN C   3      31.208  76.821  12.522  1.00 35.79     0.178 C 
HETATM   11  C4  SGN C   3      32.698  77.027  12.197  1.00 36.62     0.186 C 
HETATM   12  C5  SGN C   3      33.515  77.060  13.482  1.00 39.32     0.181 C 
HETATM   13  O5  SGN C   3      33.008  78.078  14.364  1.00 37.58    -0.349 OA
BRANCH   9  14
HETATM   14  N2  SGN C   3      29.418  77.349  14.067  1.00 29.28    -0.289 N 
ATOM     15  H2  SGN C   3      29.226  76.368  14.267  1.00  0.00     0.175 HD
BRANCH  14  16
HETATM   16  S1  SGN C   3      28.250  78.503  14.244  1.00 27.84     0.205 S 
HETATM   17  O1S SGN C   3      28.513  79.454  13.180  1.00 27.65    -0.578 OA
HETATM   18  O2S SGN C   3      28.473  79.081  15.602  1.00 27.72    -0.578 OA
HETATM   19  O3S SGN C   3      26.900  77.868  14.120  1.00 28.50    -0.578 OA
ENDBRANCH  14  16
ENDBRANCH   9  14
BRANCH  10  20
HETATM   20  O3  SGN C   3      30.421  77.003  11.348  1.00 34.89    -0.391 OA
ATOM     21  H3  SGN C   3      30.150  77.912  11.287  1.00  0.00     0.210 HD
ENDBRANCH  10  20
BRANCH  11  22
HETATM   22  O4  SGN C   3      33.161  75.930  11.389  1.00 37.13    -0.348 OA
BRANCH  22  23
HETATM   23  C1  UAP C   4      32.822  74.668  11.851  1.00 39.64     0.294 C 
HETATM   24  C2  UAP C   4      32.196  73.853  10.734  1.00 38.70     0.228 C 
HETATM   25  C3  UAP C   4      31.735  72.500  11.268  1.00 38.51     0.156 C 
HETATM   26  C4  UAP C   4      32.769  71.816  12.277  1.00 38.14     0.077 C 
HETATM   27  C5  UAP C   4      33.822  72.645  12.690  1.00 38.51     0.228 C 
HETATM   28  O5  UAP C   4      34.017  74.029  12.280  1.00 37.46    -0.343 OA
BRANCH  24  29
HETATM   29  O2  UAP C   4      31.014  74.540  10.211  1.00 40.54    -0.244 OA
BRANCH  29  30
HETATM   30  S   UAP C   4      30.759  74.660   8.635  1.00 40.49     0.252 S 
HETATM   31  O1S UAP C   4      29.850  73.565   8.264  1.00 40.89    -0.572 OA
HETATM   32  O2S UAP C   4      32.068  74.524   7.982  1.00 37.88    -0.572 OA
HETATM   33  O3S UAP C   4      30.156  75.981   8.394  1.00 37.47    -0.572 OA
ENDBRANCH  29  30
ENDBRANCH  24  29
BRANCH  25  34
HETATM   34  O3  UAP C   4      31.501  71.627  10.174  1.00 38.58    -0.393 OA
ATOM     35  H3  UAP C   4      30.569  71.456  10.109  1.00  0.00     0.210 HD
ENDBRANCH  25  34
BRANCH  27  36
HETATM   36  C6  UAP C   4      34.905  72.173  13.597  1.00 37.96     0.203 C 
HETATM   37  O6A UAP C   4      35.776  72.992  13.949  1.00 40.05    -0.646 OA
HETATM   38  O6B UAP C   4      34.892  70.978  13.961  1.00 36.71    -0.646 OA
ENDBRANCH  27  36
ENDBRANCH  22  23
ENDBRANCH  11  22
BRANCH  12  39
HETATM   39  C6  SGN C   3      34.977  77.341  13.277  1.00 42.65     0.227 C 
BRANCH  39  40
HETATM   40  O6  SGN C   3      35.154  78.740  13.592  1.00 51.09    -0.254 OA
BRANCH  40  41
HETATM   41  S2  SGN C   3      35.400  79.718  12.356  1.00 54.80     0.251 S 
HETATM   42  O4S SGN C   3      36.361  80.748  12.792  1.00 54.99    -0.572 OA
HETATM   43  O5S SGN C   3      34.073  80.309  12.009  1.00 53.99    -0.572 OA
HETATM   44  O6S SGN C   3      35.937  78.905  11.272  1.00 55.43    -0.572 OA
ENDBRANCH  40  41
ENDBRANCH  39  40
ENDBRANCH  12  39
ENDBRANCH   7   8
ENDBRANCH   4   7
BRANCH   3  45
HETATM   45  O3  IDS C   2      29.509  77.716  17.784  1.00 39.65    -0.390 OA
ATOM     46  H3  IDS C   2      28.713  77.538  18.270  1.00  0.00     0.210 HD
ENDBRANCH   3  45
BRANCH   5  47
HETATM   47  C6  IDS C   2      33.967  75.754  16.843  1.00 36.10     0.206 C 
HETATM   48  O6A IDS C   2      34.753  76.725  16.894  1.00 32.44    -0.646 OA
HETATM   49  O6B IDS C   2      34.197  74.697  16.207  1.00 33.44    -0.646 OA
ENDBRANCH   5  47
BRANCH   2  50
HETATM   50  O2  IDS C   2      28.995  75.517  19.422  1.00 43.59    -0.244 OA
BRANCH  50  51
HETATM   51  S   IDS C   2      28.597  76.011  20.886  1.00 44.11     0.252 S 
HETATM   52  O1S IDS C   2      28.195  74.789  21.662  1.00 44.48    -0.572 OA
HETATM   53  O2S IDS C   2      27.480  76.967  20.733  1.00 44.29    -0.572 OA
HETATM   54  O3S IDS C   2      29.774  76.646  21.451  1.00 44.74    -0.572 OA
ENDBRANCH  50  51
ENDBRANCH   2  50
BRANCH   1  55
HETATM   55  O4  SGN C   1      31.677  74.075  19.945  1.00 44.73    -0.348 OA
BRANCH  55  56
HETATM   56  C4  SGN C   1      32.668  73.025  19.911  1.00 48.25     0.186 C 
HETATM   57  C3  SGN C   1      33.643  73.194  21.083  1.00 48.43     0.178 C 
HETATM   58  C2  SGN C   1      34.599  72.003  21.146  1.00 48.58     0.181 C 
HETATM   59  C1  SGN C   1      33.842  70.677  21.172  1.00 50.40     0.283 C 
HETATM   60  O5  SGN C   1      32.956  70.592  20.049  1.00 50.82    -0.349 OA
HETATM   61  C5  SGN C   1      31.976  71.656  20.021  1.00 51.58     0.181 C 
BRANCH  57  62
HETATM   62  O3  SGN C   1      34.392  74.388  20.920  1.00 46.09    -0.391 OA
ATOM     63  H3  SGN C   1      33.799  75.130  20.900  1.00  0.00     0.210 HD
ENDBRANCH  57  62
BRANCH  58  64
HETATM   64  N2  SGN C   1      35.450  72.100  22.314  1.00 48.56    -0.289 N 
ATOM     65  H2  SGN C   1      35.082  72.107  23.265  1.00  0.00     0.175 HD
BRANCH  64  66
HETATM   66  S1  SGN C   1      37.067  72.200  21.979  1.00 47.67     0.205 S 
HETATM   67  O1S SGN C   1      37.729  72.673  23.215  1.00 47.59    -0.578 OA
HETATM   68  O2S SGN C   1      37.180  73.163  20.880  1.00 48.55    -0.578 OA
HETATM   69  O3S SGN C   1      37.504  70.841  21.590  1.00 47.08    -0.578 OA
ENDBRANCH  64  66
ENDBRANCH  58  64
BRANCH  59  70
HETATM   70  O1  SGN C   1      33.093  70.583  22.335  1.00 51.36    -0.369 OA
ATOM     71  H1  SGN C   1      32.216  70.916  22.183  1.00  0.00     0.212 HD
ENDBRANCH  59  70
BRANCH  61  72
HETATM   72  C6  SGN C   1      31.063  71.370  18.855  1.00 55.48     0.227 C 
BRANCH  72  73
HETATM   73  O6  SGN C   1      31.652  70.352  18.018  1.00 61.59    -0.254 OA
BRANCH  73  74
HETATM   74  S2  SGN C   1      32.228  70.869  16.625  1.00 65.98     0.251 S 
HETATM   75  O4S SGN C   1      32.377  69.647  15.716  1.00 65.09    -0.572 OA
HETATM   76  O5S SGN C   1      33.509  71.489  16.912  1.00 65.58    -0.572 OA
HETATM   77  O6S SGN C   1      31.200  71.896  16.056  1.00 65.84    -0.572 OA
ENDBRANCH  73  74
ENDBRANCH  72  73
ENDBRANCH  61  72
ENDBRANCH  55  56
ENDBRANCH   1  55
TORSDOF 27
ENDMDL
MODEL 17
REMARK VINA RESULT:      -6.8      3.269     11.519
REMARK  27 active torsions:
REMARK  status: ('A' for Active; 'I' for Inactive)
REMARK    1  A    between atoms: C1_1  and  O1_2 
REMARK    2  A    between atoms: S1_5  and  N2_7 
REMARK    3  A    between atoms: C2_6  and  N2_7 
REMARK    4  A    between atoms: S2_10  and  O6_22 
REMARK    5  A    between atoms: C3_11  and  O3_12 
REMARK    6  A    between atoms: C4_15  and  O4_16 
REMARK    7  A    between atoms: O4_16  and  C1_24 
REMARK    8  A    between atoms: C5_18  and  C6_21 
REMARK    9  A    between atoms: C6_21  and  O6_22 
REMARK   10  A    between atoms: C2_26  and  O2_27 
REMARK   11  A    between atoms: O2_27  and  S_40 
REMARK   12  A    between atoms: C3_29  and  O3_30 
REMARK   13  A    between atoms: C4_33  and  O4_34 
REMARK   14  A    between atoms: O4_34  and  C1_41 
REMARK   15  A    between atoms: C5_35  and  C6_37 
REMARK   16  A    between atoms: S1_43  and  N2_45 
REMARK   17  A    between atoms: C2_44  and  N2_45 
REMARK   18  A    between atoms: S2_48  and  O6_60 
REMARK   19  A    between atoms: C3_49  and  O3_50 
REMARK   20  A    between atoms: C4_53  and  O4_54 
REMARK   21  A    between atoms: O4_54  and  C1_62 
REMARK   22  A    between atoms: C5_56  and  C6_59 
REMARK   23  A    between atoms: C6_59  and  O6_60 
REMARK   24  A    between atoms: C2_64  and  O2_65 
REMARK   25  A    between atoms: O2_65  and  S_77 
REMARK   26  A    between atoms: C3_67  and  O3_68 
REMARK   27  A    between atoms: C5_72  and  C6_74 
ROOT
HETATM    1  C1  IDS C   2      36.211  71.487  21.459  1.00 40.81     0.294 C 
HETATM    2  C2  IDS C   2      34.891  71.188  22.174  1.00 40.20     0.231 C 
HETATM    3  C3  IDS C   2      33.708  71.320  21.220  1.00 39.01     0.185 C 
HETATM    4  C4  IDS C   2      33.619  72.747  20.643  1.00 37.65     0.195 C 
HETATM    5  C5  IDS C   2      34.981  73.443  20.763  1.00 35.99     0.257 C 
HETATM    6  O5  IDS C   2      36.037  72.504  20.447  1.00 39.00    -0.340 OA
ENDROOT
BRANCH   4   7
HETATM    7  O4  IDS C   2      33.211  72.691  19.254  1.00 35.98    -0.348 OA
BRANCH   7   8
HETATM    8  C1  SGN C   3      31.833  72.574  19.020  1.00 35.40     0.287 C 
HETATM    9  C2  SGN C   3      31.553  72.541  17.507  1.00 33.71     0.182 C 
HETATM   10  C3  SGN C   3      31.740  73.913  16.850  1.00 35.79     0.178 C 
HETATM   11  C4  SGN C   3      31.054  75.033  17.651  1.00 36.62     0.186 C 
HETATM   12  C5  SGN C   3      31.428  74.927  19.124  1.00 39.32     0.181 C 
HETATM   13  O5  SGN C   3      31.096  73.621  19.627  1.00 37.58    -0.349 OA
BRANCH   9  14
HETATM   14  N2  SGN C   3      32.444  71.595  16.872  1.00 29.28    -0.289 N 
ATOM     15  H2  SGN C   3      33.442  71.785  16.788  1.00  0.00     0.175 HD
BRANCH  14  16
HETATM   16  S1  SGN C   3      31.787  70.197  16.287  1.00 27.84     0.205 S 
HETATM   17  O1S SGN C   3      32.910  69.476  15.719  1.00 27.65    -0.578 OA
HETATM   18  O2S SGN C   3      30.798  70.630  15.256  1.00 27.72    -0.578 OA
HETATM   19  O3S SGN C   3      31.136  69.447  17.407  1.00 28.50    -0.578 OA
ENDBRANCH  14  16
ENDBRANCH   9  14
BRANCH  10  20
HETATM   20  O3  SGN C   3      31.227  73.878  15.521  1.00 34.89    -0.391 OA
ATOM     21  H3  SGN C   3      31.755  73.290  14.993  1.00  0.00     0.210 HD
ENDBRANCH  10  20
BRANCH  11  22
HETATM   22  O4  SGN C   3      31.498  76.309  17.157  1.00 37.13    -0.348 OA
BRANCH  22  23
HETATM   23  C1  UAP C   4      30.542  77.048  16.478  1.00 39.64     0.294 C 
HETATM   24  C2  UAP C   4      30.914  77.161  15.011  1.00 38.70     0.228 C 
HETATM   25  C3  UAP C   4      29.913  78.056  14.285  1.00 38.51     0.156 C 
HETATM   26  C4  UAP C   4      28.392  77.804  14.710  1.00 38.14     0.077 C 
HETATM   27  C5  UAP C   4      28.226  76.974  15.828  1.00 38.51     0.228 C 
HETATM   28  O5  UAP C   4      29.303  76.361  16.593  1.00 37.46    -0.343 OA
BRANCH  24  29
HETATM   29  O2  UAP C   4      32.232  77.782  14.872  1.00 40.54    -0.244 OA
BRANCH  29  30
HETATM   30  S   UAP C   4      33.376  77.099  13.984  1.00 40.49     0.252 S 
HETATM   31  O1S UAP C   4      33.057  77.389  12.579  1.00 40.89    -0.572 OA
HETATM   32  O2S UAP C   4      33.327  75.656  14.265  1.00 37.88    -0.572 OA
HETATM   33  O3S UAP C   4      34.656  77.698  14.393  1.00 37.47    -0.572 OA
ENDBRANCH  29  30
ENDBRANCH  24  29
BRANCH  25  34
HETATM   34  O3  UAP C   4      30.047  77.859  12.886  1.00 38.58    -0.393 OA
ATOM     35  H3  UAP C   4      29.283  77.394  12.565  1.00  0.00     0.210 HD
ENDBRANCH  25  34
BRANCH  27  36
HETATM   36  C6  UAP C   4      26.883  76.593  16.349  1.00 37.96     0.203 C 
HETATM   37  O6A UAP C   4      25.878  76.957  15.707  1.00 40.05    -0.646 OA
HETATM   38  O6B UAP C   4      26.825  75.929  17.406  1.00 36.71    -0.646 OA
ENDBRANCH  27  36
ENDBRANCH  22  23
ENDBRANCH  11  22
BRANCH  12  39
HETATM   39  C6  SGN C   3      30.740  75.929  20.010  1.00 42.65     0.227 C 
BRANCH  39  40
HETATM   40  O6  SGN C   3      29.326  75.691  19.843  1.00 51.09    -0.254 OA
BRANCH  40  41
HETATM   41  S2  SGN C   3      28.405  75.978  21.114  1.00 54.80     0.251 S 
HETATM   42  O4S SGN C   3      27.351  76.919  20.693  1.00 54.99    -0.572 OA
HETATM   43  O5S SGN C   3      29.292  76.573  22.158  1.00 53.99    -0.572 OA
HETATM   44  O6S SGN C   3      27.851  74.698  21.533  1.00 55.43    -0.572 OA
ENDBRANCH  40  41
ENDBRANCH  39  40
ENDBRANCH  12  39
ENDBRANCH   7   8
ENDBRANCH   4   7
BRANCH   3  45
HETATM   45  O3  IDS C   2      32.506  71.002  21.909  1.00 39.65    -0.390 OA
ATOM     46  H3  IDS C   2      31.895  71.725  21.829  1.00  0.00     0.210 HD
ENDBRANCH   3  45
BRANCH   5  47
HETATM   47  C6  IDS C   2      35.160  74.663  19.871  1.00 36.10     0.206 C 
HETATM   48  O6A IDS C   2      35.893  74.544  18.864  1.00 32.44    -0.646 OA
HETATM   49  O6B IDS C   2      34.556  75.719  20.177  1.00 33.44    -0.646 OA
ENDBRANCH   5  47
BRANCH   2  50
HETATM   50  O2  IDS C   2      34.911  69.825  22.691  1.00 43.59    -0.244 OA
BRANCH  50  51
HETATM   51  S   IDS C   2      34.610  69.563  24.236  1.00 44.11     0.252 S 
HETATM   52  O1S IDS C   2      35.919  69.696  24.962  1.00 44.48    -0.572 OA
HETATM   53  O2S IDS C   2      34.050  68.199  24.344  1.00 44.29    -0.572 OA
HETATM   54  O3S IDS C   2      33.655  70.572  24.656  1.00 44.74    -0.572 OA
ENDBRANCH  50  51
ENDBRANCH   2  50
BRANCH   1  55
HETATM   55  O4  SGN C   1      37.146  71.936  22.380  1.00 44.73    -0.348 OA
BRANCH  55  56
HETATM   56  C4  SGN C   1      38.489  71.413  22.281  1.00 48.25     0.186 C 
HETATM   57  C3  SGN C   1      38.440  69.899  22.046  1.00 48.43     0.178 C 
HETATM   58  C2  SGN C   1      39.847  69.363  21.785  1.00 48.58     0.181 C 
HETATM   59  C1  SGN C   1      40.541  70.131  20.661  1.00 50.40     0.283 C 
HETATM   60  O5  SGN C   1      40.549  71.534  20.954  1.00 50.82    -0.349 OA
HETATM   61  C5  SGN C   1      39.221  72.086  21.108  1.00 51.58     0.181 C 
BRANCH  57  62
HETATM   62  O3  SGN C   1      37.895  69.250  23.183  1.00 46.09    -0.391 OA
ATOM     63  H3  SGN C   1      37.175  68.692  22.911  1.00  0.00     0.210 HD
ENDBRANCH  57  62
BRANCH  58  64
HETATM   64  N2  SGN C   1      39.798  67.954  21.452  1.00 48.56    -0.289 N 
ATOM     65  H2  SGN C   1      39.336  67.601  20.615  1.00  0.00     0.175 HD
BRANCH  64  66
HETATM   66  S1  SGN C   1      40.553  66.964  22.542  1.00 47.67     0.205 S 
HETATM   67  O1S SGN C   1      40.751  65.662  21.868  1.00 47.59    -0.578 OA
HETATM   68  O2S SGN C   1      39.637  66.870  23.683  1.00 48.55    -0.578 OA
HETATM   69  O3S SGN C   1      41.832  67.618  22.894  1.00 47.08    -0.578 OA
ENDBRANCH  64  66
ENDBRANCH  58  64
BRANCH  59  70
HETATM   70  O1  SGN C   1      39.867  69.931  19.466  1.00 51.36    -0.369 OA
ATOM     71  H1  SGN C   1      40.297  70.410  18.768  1.00  0.00     0.212 HD
ENDBRANCH  59  70
BRANCH  61  72
HETATM   72  C6  SGN C   1      39.392  73.572  21.304  1.00 55.48     0.227 C 
BRANCH  72  73
HETATM   73  O6  SGN C   1      40.681  73.981  20.798  1.00 61.59    -0.254 OA
BRANCH  73  74
HETATM   74  S2  SGN C   1      40.676  75.322  19.938  1.00 65.98     0.251 S 
HETATM   75  O4S SGN C   1      39.307  75.419  19.261  1.00 65.09    -0.572 OA
HETATM   76  O5S SGN C   1      41.750  75.197  18.969  1.00 65.58    -0.572 OA
HETATM   77  O6S SGN C   1      40.921  76.504  20.928  1.00 65.84    -0.572 OA
ENDBRANCH  73  74
ENDBRANCH  72  73
ENDBRANCH  61  72
ENDBRANCH  55  56
ENDBRANCH   1  55
TORSDOF 27
ENDMDL
MODEL 18
REMARK VINA RESULT:      -6.7      3.572     11.401
REMARK  27 active torsions:
REMARK  status: ('A' for Active; 'I' for Inactive)
REMARK    1  A    between atoms: C1_1  and  O1_2 
REMARK    2  A    between atoms: S1_5  and  N2_7 
REMARK    3  A    between atoms: C2_6  and  N2_7 
REMARK    4  A    between atoms: S2_10  and  O6_22 
REMARK    5  A    between atoms: C3_11  and  O3_12 
REMARK    6  A    between atoms: C4_15  and  O4_16 
REMARK    7  A    between atoms: O4_16  and  C1_24 
REMARK    8  A    between atoms: C5_18  and  C6_21 
REMARK    9  A    between atoms: C6_21  and  O6_22 
REMARK   10  A    between atoms: C2_26  and  O2_27 
REMARK   11  A    between atoms: O2_27  and  S_40 
REMARK   12  A    between atoms: C3_29  and  O3_30 
REMARK   13  A    between atoms: C4_33  and  O4_34 
REMARK   14  A    between atoms: O4_34  and  C1_41 
REMARK   15  A    between atoms: C5_35  and  C6_37 
REMARK   16  A    between atoms: S1_43  and  N2_45 
REMARK   17  A    between atoms: C2_44  and  N2_45 
REMARK   18  A    between atoms: S2_48  and  O6_60 
REMARK   19  A    between atoms: C3_49  and  O3_50 
REMARK   20  A    between atoms: C4_53  and  O4_54 
REMARK   21  A    between atoms: O4_54  and  C1_62 
REMARK   22  A    between atoms: C5_56  and  C6_59 
REMARK   23  A    between atoms: C6_59  and  O6_60 
REMARK   24  A    between atoms: C2_64  and  O2_65 
REMARK   25  A    between atoms: O2_65  and  S_77 
REMARK   26  A    between atoms: C3_67  and  O3_68 
REMARK   27  A    between atoms: C5_72  and  C6_74 
ROOT
HETATM    1  C1  IDS C   2      36.755  70.157  21.964  1.00 40.81     0.294 C 
HETATM    2  C2  IDS C   2      35.521  70.311  22.857  1.00 40.20     0.231 C 
HETATM    3  C3  IDS C   2      34.315  70.781  22.049  1.00 39.01     0.185 C 
HETATM    4  C4  IDS C   2      34.592  72.145  21.385  1.00 37.65     0.195 C 
HETATM    5  C5  IDS C   2      36.105  72.378  21.284  1.00 35.99     0.257 C 
HETATM    6  O5  IDS C   2      36.764  71.145  20.910  1.00 39.00    -0.340 OA
ENDROOT
BRANCH   4   7
HETATM    7  O4  IDS C   2      33.996  72.179  20.064  1.00 35.98    -0.348 OA
BRANCH   7   8
HETATM    8  C1  SGN C   3      32.623  71.899  20.000  1.00 35.40     0.287 C 
HETATM    9  C2  SGN C   3      32.247  71.415  18.588  1.00 33.71     0.182 C 
HETATM   10  C3  SGN C   3      32.256  72.552  17.560  1.00 35.79     0.178 C 
HETATM   11  C4  SGN C   3      31.520  73.800  18.078  1.00 36.62     0.186 C 
HETATM   12  C5  SGN C   3      32.001  74.147  19.481  1.00 39.32     0.181 C 
HETATM   13  O5  SGN C   3      31.831  73.017  20.356  1.00 37.58    -0.349 OA
BRANCH   9  14
HETATM   14  N2  SGN C   3      33.181  70.395  18.162  1.00 29.28    -0.289 N 
ATOM     15  H2  SGN C   3      34.186  70.569  18.158  1.00  0.00     0.175 HD
BRANCH  14  16
HETATM   16  S1  SGN C   3      32.562  68.941  17.683  1.00 27.84     0.205 S 
HETATM   17  O1S SGN C   3      33.378  68.554  16.547  1.00 27.65    -0.578 OA
HETATM   18  O2S SGN C   3      31.145  69.223  17.305  1.00 27.72    -0.578 OA
HETATM   19  O3S SGN C   3      32.657  67.963  18.812  1.00 28.50    -0.578 OA
ENDBRANCH  14  16
ENDBRANCH   9  14
BRANCH  10  20
HETATM   20  O3  SGN C   3      31.661  72.101  16.346  1.00 34.89    -0.391 OA
ATOM     21  H3  SGN C   3      30.757  72.393  16.309  1.00  0.00     0.210 HD
ENDBRANCH  10  20
BRANCH  11  22
HETATM   22  O4  SGN C   3      31.804  74.911  17.209  1.00 37.13    -0.348 OA
BRANCH  22  23
HETATM   23  C1  UAP C   4      33.148  75.133  16.951  1.00 39.64     0.294 C 
HETATM   24  C2  UAP C   4      33.360  75.385  15.469  1.00 38.70     0.228 C 
HETATM   25  C3  UAP C   4      34.850  75.533  15.171  1.00 38.51     0.156 C 
HETATM   26  C4  UAP C   4      35.643  76.401  16.253  1.00 38.14     0.077 C 
HETATM   27  C5  UAP C   4      34.914  76.703  17.412  1.00 38.51     0.228 C 
HETATM   28  O5  UAP C   4      33.544  76.288  17.679  1.00 37.46    -0.343 OA
BRANCH  24  29
HETATM   29  O2  UAP C   4      32.872  74.245  14.690  1.00 40.54    -0.244 OA
BRANCH  29  30
HETATM   30  S   UAP C   4      31.727  74.430  13.586  1.00 40.49     0.252 S 
HETATM   31  O1S UAP C   4      31.355  75.853  13.589  1.00 40.89    -0.572 OA
HETATM   32  O2S UAP C   4      30.603  73.575  13.993  1.00 37.88    -0.572 OA
HETATM   33  O3S UAP C   4      32.300  74.014  12.296  1.00 37.47    -0.572 OA
ENDBRANCH  29  30
ENDBRANCH  24  29
BRANCH  25  34
HETATM   34  O3  UAP C   4      35.008  76.122  13.890  1.00 38.58    -0.393 OA
ATOM     35  H3  UAP C   4      34.285  76.717  13.732  1.00  0.00     0.210 HD
ENDBRANCH  25  34
BRANCH  27  36
HETATM   36  C6  UAP C   4      35.471  77.535  18.515  1.00 37.96     0.203 C 
HETATM   37  O6A UAP C   4      36.697  77.758  18.522  1.00 40.05    -0.646 OA
HETATM   38  O6B UAP C   4      34.684  77.970  19.383  1.00 36.71    -0.646 OA
ENDBRANCH  27  36
ENDBRANCH  22  23
ENDBRANCH  11  22
BRANCH  12  39
HETATM   39  C6  SGN C   3      31.280  75.306  20.112  1.00 42.65     0.227 C 
BRANCH  39  40
HETATM   40  O6  SGN C   3      29.886  75.125  19.781  1.00 51.09    -0.254 OA
BRANCH  40  41
HETATM   41  S2  SGN C   3      28.832  75.836  20.746  1.00 54.80     0.251 S 
HETATM   42  O4S SGN C   3      28.176  74.779  21.539  1.00 54.99    -0.572 OA
HETATM   43  O5S SGN C   3      27.861  76.550  19.865  1.00 53.99    -0.572 OA
HETATM   44  O6S SGN C   3      29.584  76.755  21.590  1.00 55.43    -0.572 OA
ENDBRANCH  40  41
ENDBRANCH  39  40
ENDBRANCH  12  39
ENDBRANCH   7   8
ENDBRANCH   4   7
BRANCH   3  45
HETATM   45  O3  IDS C   2      33.183  70.881  22.902  1.00 39.65    -0.390 OA
ATOM     46  H3  IDS C   2      33.448  71.241  23.739  1.00  0.00     0.210 HD
ENDBRANCH   3  45
BRANCH   5  47
HETATM   47  C6  IDS C   2      36.526  73.452  20.290  1.00 36.10     0.206 C 
HETATM   48  O6A IDS C   2      37.603  73.285  19.678  1.00 32.44    -0.646 OA
HETATM   49  O6B IDS C   2      35.769  74.438  20.123  1.00 33.44    -0.646 OA
ENDBRANCH   5  47
BRANCH   2  50
HETATM   50  O2  IDS C   2      35.191  69.029  23.465  1.00 43.59    -0.244 OA
BRANCH  50  51
HETATM   51  S   IDS C   2      35.147  68.898  25.055  1.00 44.11     0.252 S 
HETATM   52  O1S IDS C   2      34.379  67.645  25.366  1.00 44.48    -0.572 OA
HETATM   53  O2S IDS C   2      34.472  70.108  25.571  1.00 44.29    -0.572 OA
HETATM   54  O3S IDS C   2      36.523  68.815  25.510  1.00 44.74    -0.572 OA
ENDBRANCH  50  51
ENDBRANCH   2  50
BRANCH   1  55
HETATM   55  O4  SGN C   1      37.902  70.315  22.728  1.00 44.73    -0.348 OA
BRANCH  55  56
HETATM   56  C4  SGN C   1      39.149  69.844  22.171  1.00 48.25     0.186 C 
HETATM   57  C3  SGN C   1      40.116  71.021  21.994  1.00 48.43     0.178 C 
HETATM   58  C2  SGN C   1      41.487  70.511  21.553  1.00 48.58     0.181 C 
HETATM   59  C1  SGN C   1      42.013  69.428  22.493  1.00 50.40     0.283 C 
HETATM   60  O5  SGN C   1      41.058  68.366  22.605  1.00 50.82    -0.349 OA
HETATM   61  C5  SGN C   1      39.779  68.807  23.116  1.00 51.58     0.181 C 
BRANCH  57  62
HETATM   62  O3  SGN C   1      39.613  71.918  21.017  1.00 46.09    -0.391 OA
ATOM     63  H3  SGN C   1      40.310  72.148  20.414  1.00  0.00     0.210 HD
ENDBRANCH  57  62
BRANCH  58  64
HETATM   64  N2  SGN C   1      42.437  71.603  21.490  1.00 48.56    -0.289 N 
ATOM     65  H2  SGN C   1      42.705  72.148  22.309  1.00  0.00     0.175 HD
BRANCH  64  66
HETATM   66  S1  SGN C   1      43.049  71.896  19.981  1.00 47.67     0.205 S 
HETATM   67  O1S SGN C   1      43.435  73.324  19.948  1.00 47.59    -0.578 OA
HETATM   68  O2S SGN C   1      41.958  71.589  19.051  1.00 48.55    -0.578 OA
HETATM   69  O3S SGN C   1      44.209  70.994  19.813  1.00 47.08    -0.578 OA
ENDBRANCH  64  66
ENDBRANCH  58  64
BRANCH  59  70
HETATM   70  O1  SGN C   1      42.231  69.963  23.754  1.00 51.36    -0.369 OA
ATOM     71  H1  SGN C   1      42.351  70.903  23.690  1.00  0.00     0.212 HD
ENDBRANCH  59  70
BRANCH  61  72
HETATM   72  C6  SGN C   1      38.929  67.571  23.275  1.00 55.48     0.227 C 
BRANCH  72  73
HETATM   73  O6  SGN C   1      39.138  67.007  24.587  1.00 61.59    -0.254 OA
BRANCH  73  74
HETATM   74  S2  SGN C   1      39.650  65.498  24.601  1.00 65.98     0.251 S 
HETATM   75  O4S SGN C   1      39.564  65.005  26.047  1.00 65.09    -0.572 OA
HETATM   76  O5S SGN C   1      41.019  65.521  24.119  1.00 65.58    -0.572 OA
HETATM   77  O6S SGN C   1      38.713  64.685  23.652  1.00 65.84    -0.572 OA
ENDBRANCH  73  74
ENDBRANCH  72  73
ENDBRANCH  61  72
ENDBRANCH  55  56
ENDBRANCH   1  55
TORSDOF 27
ENDMDL
MODEL 19
REMARK VINA RESULT:      -6.7      8.965     15.412
REMARK  27 active torsions:
REMARK  status: ('A' for Active; 'I' for Inactive)
REMARK    1  A    between atoms: C1_1  and  O1_2 
REMARK    2  A    between atoms: S1_5  and  N2_7 
REMARK    3  A    between atoms: C2_6  and  N2_7 
REMARK    4  A    between atoms: S2_10  and  O6_22 
REMARK    5  A    between atoms: C3_11  and  O3_12 
REMARK    6  A    between atoms: C4_15  and  O4_16 
REMARK    7  A    between atoms: O4_16  and  C1_24 
REMARK    8  A    between atoms: C5_18  and  C6_21 
REMARK    9  A    between atoms: C6_21  and  O6_22 
REMARK   10  A    between atoms: C2_26  and  O2_27 
REMARK   11  A    between atoms: O2_27  and  S_40 
REMARK   12  A    between atoms: C3_29  and  O3_30 
REMARK   13  A    between atoms: C4_33  and  O4_34 
REMARK   14  A    between atoms: O4_34  and  C1_41 
REMARK   15  A    between atoms: C5_35  and  C6_37 
REMARK   16  A    between atoms: S1_43  and  N2_45 
REMARK   17  A    between atoms: C2_44  and  N2_45 
REMARK   18  A    between atoms: S2_48  and  O6_60 
REMARK   19  A    between atoms: C3_49  and  O3_50 
REMARK   20  A    between atoms: C4_53  and  O4_54 
REMARK   21  A    between atoms: O4_54  and  C1_62 
REMARK   22  A    between atoms: C5_56  and  C6_59 
REMARK   23  A    between atoms: C6_59  and  O6_60 
REMARK   24  A    between atoms: C2_64  and  O2_65 
REMARK   25  A    between atoms: O2_65  and  S_77 
REMARK   26  A    between atoms: C3_67  and  O3_68 
REMARK   27  A    between atoms: C5_72  and  C6_74 
ROOT
HETATM    1  C1  IDS C   2      28.393  87.079  13.952  1.00 40.81     0.294 C 
HETATM    2  C2  IDS C   2      28.316  86.425  15.334  1.00 40.20     0.231 C 
HETATM    3  C3  IDS C   2      28.866  85.002  15.299  1.00 39.01     0.185 C 
HETATM    4  C4  IDS C   2      28.066  84.124  14.315  1.00 37.65     0.195 C 
HETATM    5  C5  IDS C   2      27.329  85.012  13.305  1.00 35.99     0.257 C 
HETATM    6  O5  IDS C   2      28.186  86.108  12.903  1.00 39.00    -0.340 OA
ENDROOT
BRANCH   4   7
HETATM    7  O4  IDS C   2      28.963  83.222  13.621  1.00 35.98    -0.348 OA
BRANCH   7   8
HETATM    8  C1  SGN C   3      30.050  82.740  14.364  1.00 35.40     0.287 C 
HETATM    9  C2  SGN C   3      31.234  82.430  13.431  1.00 33.71     0.182 C 
HETATM   10  C3  SGN C   3      31.002  81.166  12.595  1.00 35.79     0.178 C 
HETATM   11  C4  SGN C   3      30.478  80.000  13.451  1.00 36.62     0.186 C 
HETATM   12  C5  SGN C   3      29.315  80.467  14.316  1.00 39.32     0.181 C 
HETATM   13  O5  SGN C   3      29.716  81.590  15.120  1.00 37.58    -0.349 OA
BRANCH   9  14
HETATM   14  N2  SGN C   3      31.449  83.546  12.536  1.00 29.28    -0.289 N 
ATOM     15  H2  SGN C   3      30.924  83.633  11.666  1.00  0.00     0.175 HD
BRANCH  14  16
HETATM   16  S1  SGN C   3      32.574  84.674  12.973  1.00 27.84     0.205 S 
HETATM   17  O1S SGN C   3      33.525  84.683  11.878  1.00 27.65    -0.578 OA
HETATM   18  O2S SGN C   3      33.164  84.165  14.246  1.00 27.72    -0.578 OA
HETATM   19  O3S SGN C   3      31.904  86.000  13.157  1.00 28.50    -0.578 OA
ENDBRANCH  14  16
ENDBRANCH   9  14
BRANCH  10  20
HETATM   20  O3  SGN C   3      32.217  80.792  11.950  1.00 34.89    -0.391 OA
ATOM     21  H3  SGN C   3      32.088  80.790  11.009  1.00  0.00     0.210 HD
ENDBRANCH  10  20
BRANCH  11  22
HETATM   22  O4  SGN C   3      30.012  78.950  12.585  1.00 37.13    -0.348 OA
BRANCH  22  23
HETATM   23  C1  UAP C   4      30.682  77.743  12.702  1.00 39.64     0.294 C 
HETATM   24  C2  UAP C   4      31.403  77.418  11.406  1.00 38.70     0.228 C 
HETATM   25  C3  UAP C   4      32.060  76.044  11.502  1.00 38.51     0.156 C 
HETATM   26  C4  UAP C   4      32.769  75.762  12.907  1.00 38.14     0.077 C 
HETATM   27  C5  UAP C   4      32.494  76.710  13.903  1.00 38.51     0.228 C 
HETATM   28  O5  UAP C   4      31.638  77.877  13.745  1.00 37.46    -0.343 OA
BRANCH  24  29
HETATM   29  O2  UAP C   4      30.448  77.367  10.298  1.00 40.54    -0.244 OA
BRANCH  29  30
HETATM   30  S   UAP C   4      30.434  78.501   9.168  1.00 40.49     0.252 S 
HETATM   31  O1S UAP C   4      29.151  79.210   9.289  1.00 40.89    -0.572 OA
HETATM   32  O2S UAP C   4      30.554  77.813   7.874  1.00 37.88    -0.572 OA
HETATM   33  O3S UAP C   4      31.578  79.388   9.431  1.00 37.47    -0.572 OA
ENDBRANCH  29  30
ENDBRANCH  24  29
BRANCH  25  34
HETATM   34  O3  UAP C   4      33.015  75.914  10.461  1.00 38.58    -0.393 OA
ATOM     35  H3  UAP C   4      33.791  76.412  10.690  1.00  0.00     0.210 HD
ENDBRANCH  25  34
BRANCH  27  36
HETATM   36  C6  UAP C   4      33.096  76.639  15.264  1.00 37.96     0.203 C 
HETATM   37  O6A UAP C   4      32.664  77.414  16.140  1.00 40.05    -0.646 OA
HETATM   38  O6B UAP C   4      34.008  75.808  15.464  1.00 36.71    -0.646 OA
ENDBRANCH  27  36
ENDBRANCH  22  23
ENDBRANCH  11  22
BRANCH  12  39
HETATM   39  C6  SGN C   3      28.784  79.419  15.255  1.00 42.65     0.227 C 
BRANCH  39  40
HETATM   40  O6  SGN C   3      27.345  79.517  15.176  1.00 51.09    -0.254 OA
BRANCH  40  41
HETATM   41  S2  SGN C   3      26.577  78.230  14.629  1.00 54.80     0.251 S 
HETATM   42  O4S SGN C   3      27.593  77.208  14.317  1.00 54.99    -0.572 OA
HETATM   43  O5S SGN C   3      25.833  78.663  13.408  1.00 53.99    -0.572 OA
HETATM   44  O6S SGN C   3      25.678  77.791  15.689  1.00 55.43    -0.572 OA
ENDBRANCH  40  41
ENDBRANCH  39  40
ENDBRANCH  12  39
ENDBRANCH   7   8
ENDBRANCH   4   7
BRANCH   3  45
HETATM   45  O3  IDS C   2      28.810  84.440  16.603  1.00 39.65    -0.390 OA
ATOM     46  H3  IDS C   2      28.409  85.061  17.198  1.00  0.00     0.210 HD
ENDBRANCH   3  45
BRANCH   5  47
HETATM   47  C6  IDS C   2      26.860  84.299  12.044  1.00 36.10     0.206 C 
HETATM   48  O6A IDS C   2      26.075  83.335  12.181  1.00 32.44    -0.646 OA
HETATM   49  O6B IDS C   2      27.267  84.721  10.935  1.00 33.44    -0.646 OA
ENDBRANCH   5  47
BRANCH   2  50
HETATM   50  O2  IDS C   2      29.105  87.196  16.286  1.00 43.59    -0.244 OA
BRANCH  50  51
HETATM   51  S   IDS C   2      28.428  87.712  17.636  1.00 44.11     0.252 S 
HETATM   52  O1S IDS C   2      26.973  87.938  17.333  1.00 44.48    -0.572 OA
HETATM   53  O2S IDS C   2      29.118  88.962  18.017  1.00 44.29    -0.572 OA
HETATM   54  O3S IDS C   2      28.617  86.669  18.628  1.00 44.74    -0.572 OA
ENDBRANCH  50  51
ENDBRANCH   2  50
BRANCH   1  55
HETATM   55  O4  SGN C   1      27.415  88.057  13.848  1.00 44.73    -0.348 OA
BRANCH  55  56
HETATM   56  C4  SGN C   1      27.489  88.961  12.723  1.00 48.25     0.186 C 
HETATM   57  C3  SGN C   1      26.205  88.859  11.890  1.00 48.43     0.178 C 
HETATM   58  C2  SGN C   1      26.208  89.920  10.791  1.00 48.58     0.181 C 
HETATM   59  C1  SGN C   1      26.454  91.317  11.359  1.00 50.40     0.283 C 
HETATM   60  O5  SGN C   1      27.667  91.333  12.120  1.00 50.82    -0.349 OA
HETATM   61  C5  SGN C   1      27.651  90.405  13.230  1.00 51.58     0.181 C 
BRANCH  57  62
HETATM   62  O3  SGN C   1      26.114  87.572  11.299  1.00 46.09    -0.391 OA
ATOM     63  H3  SGN C   1      25.310  87.514  10.796  1.00  0.00     0.210 HD
ENDBRANCH  57  62
BRANCH  58  64
HETATM   64  N2  SGN C   1      24.952  89.903  10.068  1.00 48.56    -0.289 N 
ATOM     65  H2  SGN C   1      24.056  89.738  10.526  1.00  0.00     0.175 HD
BRANCH  64  66
HETATM   66  S1  SGN C   1      25.091  90.172   8.442  1.00 47.67     0.205 S 
HETATM   67  O1S SGN C   1      24.092  89.304   7.781  1.00 47.59    -0.578 OA
HETATM   68  O2S SGN C   1      26.468  89.802   8.101  1.00 48.55    -0.578 OA
HETATM   69  O3S SGN C   1      24.820  91.611   8.227  1.00 47.08    -0.578 OA
ENDBRANCH  64  66
ENDBRANCH  58  64
BRANCH  59  70
HETATM   70  O1  SGN C   1      25.404  91.680  12.189  1.00 51.36    -0.369 OA
ATOM     71  H1  SGN C   1      24.611  91.791  11.679  1.00  0.00     0.212 HD
ENDBRANCH  59  70
BRANCH  61  72
HETATM   72  C6  SGN C   1      28.938  90.615  13.987  1.00 55.48     0.227 C 
BRANCH  72  73
HETATM   73  O6  SGN C   1      30.027  90.774  13.052  1.00 61.59    -0.254 OA
BRANCH  73  74
HETATM   74  S2  SGN C   1      31.009  91.991  13.359  1.00 65.98     0.251 S 
HETATM   75  O4S SGN C   1      31.628  91.736  14.735  1.00 65.09    -0.572 OA
HETATM   76  O5S SGN C   1      30.195  93.193  13.346  1.00 65.58    -0.572 OA
HETATM   77  O6S SGN C   1      32.088  92.008  12.230  1.00 65.84    -0.572 OA
ENDBRANCH  73  74
ENDBRANCH  72  73
ENDBRANCH  61  72
ENDBRANCH  55  56
ENDBRANCH   1  55
TORSDOF 27
ENDMDL
MODEL 20
REMARK VINA RESULT:      -6.7      9.568     15.531
REMARK  27 active torsions:
REMARK  status: ('A' for Active; 'I' for Inactive)
REMARK    1  A    between atoms: C1_1  and  O1_2 
REMARK    2  A    between atoms: S1_5  and  N2_7 
REMARK    3  A    between atoms: C2_6  and  N2_7 
REMARK    4  A    between atoms: S2_10  and  O6_22 
REMARK    5  A    between atoms: C3_11  and  O3_12 
REMARK    6  A    between atoms: C4_15  and  O4_16 
REMARK    7  A    between atoms: O4_16  and  C1_24 
REMARK    8  A    between atoms: C5_18  and  C6_21 
REMARK    9  A    between atoms: C6_21  and  O6_22 
REMARK   10  A    between atoms: C2_26  and  O2_27 
REMARK   11  A    between atoms: O2_27  and  S_40 
REMARK   12  A    between atoms: C3_29  and  O3_30 
REMARK   13  A    between atoms: C4_33  and  O4_34 
REMARK   14  A    between atoms: O4_34  and  C1_41 
REMARK   15  A    between atoms: C5_35  and  C6_37 
REMARK   16  A    between atoms: S1_43  and  N2_45 
REMARK   17  A    between atoms: C2_44  and  N2_45 
REMARK   18  A    between atoms: S2_48  and  O6_60 
REMARK   19  A    between atoms: C3_49  and  O3_50 
REMARK   20  A    between atoms: C4_53  and  O4_54 
REMARK   21  A    between atoms: O4_54  and  C1_62 
REMARK   22  A    between atoms: C5_56  and  C6_59 
REMARK   23  A    between atoms: C6_59  and  O6_60 
REMARK   24  A    between atoms: C2_64  and  O2_65 
REMARK   25  A    between atoms: O2_65  and  S_77 
REMARK   26  A    between atoms: C3_67  and  O3_68 
REMARK   27  A    between atoms: C5_72  and  C6_74 
ROOT
HETATM    1  C1  IDS C   2      28.389  87.385  14.113  1.00 40.81     0.294 C 
HETATM    2  C2  IDS C   2      28.335  86.654  15.457  1.00 40.20     0.231 C 
HETATM    3  C3  IDS C   2      28.856  85.226  15.325  1.00 39.01     0.185 C 
HETATM    4  C4  IDS C   2      28.013  84.421  14.316  1.00 37.65     0.195 C 
HETATM    5  C5  IDS C   2      27.267  85.380  13.379  1.00 35.99     0.257 C 
HETATM    6  O5  IDS C   2      28.135  86.480  13.016  1.00 39.00    -0.340 OA
ENDROOT
BRANCH   4   7
HETATM    7  O4  IDS C   2      28.873  83.544  13.546  1.00 35.98    -0.348 OA
BRANCH   7   8
HETATM    8  C1  SGN C   3      29.979  83.014  14.226  1.00 35.40     0.287 C 
HETATM    9  C2  SGN C   3      31.114  82.709  13.232  1.00 33.71     0.182 C 
HETATM   10  C3  SGN C   3      30.817  81.478  12.367  1.00 35.79     0.178 C 
HETATM   11  C4  SGN C   3      30.303  80.296  13.207  1.00 36.62     0.186 C 
HETATM   12  C5  SGN C   3      29.188  80.760  14.136  1.00 39.32     0.181 C 
HETATM   13  O5  SGN C   3      29.650  81.847  14.958  1.00 37.58    -0.349 OA
BRANCH   9  14
HETATM   14  N2  SGN C   3      31.317  83.849  12.365  1.00 29.28    -0.289 N 
ATOM     15  H2  SGN C   3      30.811  83.938  11.484  1.00  0.00     0.175 HD
BRANCH  14  16
HETATM   16  S1  SGN C   3      32.396  85.000  12.853  1.00 27.84     0.205 S 
HETATM   17  O1S SGN C   3      33.209  85.258  11.680  1.00 27.65    -0.578 OA
HETATM   18  O2S SGN C   3      33.169  84.368  13.963  1.00 27.72    -0.578 OA
HETATM   19  O3S SGN C   3      31.653  86.217  13.310  1.00 28.50    -0.578 OA
ENDBRANCH  14  16
ENDBRANCH   9  14
BRANCH  10  20
HETATM   20  O3  SGN C   3      31.994  81.099  11.658  1.00 34.89    -0.391 OA
ATOM     21  H3  SGN C   3      31.850  80.264  11.229  1.00  0.00     0.210 HD
ENDBRANCH  10  20
BRANCH  11  22
HETATM   22  O4  SGN C   3      29.775  79.287  12.328  1.00 37.13    -0.348 OA
BRANCH  22  23
HETATM   23  C1  UAP C   4      30.723  78.533  11.653  1.00 39.64     0.294 C 
HETATM   24  C2  UAP C   4      30.641  77.081  12.088  1.00 38.70     0.228 C 
HETATM   25  C3  UAP C   4      31.748  76.271  11.418  1.00 38.51     0.156 C 
HETATM   26  C4  UAP C   4      31.975  76.636   9.878  1.00 38.14     0.077 C 
HETATM   27  C5  UAP C   4      31.293  77.780   9.439  1.00 38.51     0.228 C 
HETATM   28  O5  UAP C   4      30.435  78.619  10.264  1.00 37.46    -0.343 OA
BRANCH  24  29
HETATM   29  O2  UAP C   4      30.841  76.977  13.534  1.00 40.54    -0.244 OA
BRANCH  29  30
HETATM   30  S   UAP C   4      30.169  75.793  14.377  1.00 40.49     0.252 S 
HETATM   31  O1S UAP C   4      29.661  76.389  15.622  1.00 40.89    -0.572 OA
HETATM   32  O2S UAP C   4      31.225  74.806  14.639  1.00 37.88    -0.572 OA
HETATM   33  O3S UAP C   4      29.085  75.237  13.552  1.00 37.47    -0.572 OA
ENDBRANCH  29  30
ENDBRANCH  24  29
BRANCH  25  34
HETATM   34  O3  UAP C   4      31.444  74.890  11.532  1.00 38.58    -0.393 OA
ATOM     35  H3  UAP C   4      32.153  74.454  11.989  1.00  0.00     0.210 HD
ENDBRANCH  25  34
BRANCH  27  36
HETATM   36  C6  UAP C   4      31.349  78.254   8.028  1.00 37.96     0.203 C 
HETATM   37  O6A UAP C   4      32.105  77.656   7.237  1.00 40.05    -0.646 OA
HETATM   38  O6B UAP C   4      30.640  79.230   7.703  1.00 36.71    -0.646 OA
ENDBRANCH  27  36
ENDBRANCH  22  23
ENDBRANCH  11  22
BRANCH  12  39
HETATM   39  C6  SGN C   3      28.673  79.694  15.063  1.00 42.65     0.227 C 
BRANCH  39  40
HETATM   40  O6  SGN C   3      27.240  79.870  15.103  1.00 51.09    -0.254 OA
BRANCH  40  41
HETATM   41  S2  SGN C   3      26.376  78.568  15.423  1.00 54.80     0.251 S 
HETATM   42  O4S SGN C   3      26.972  77.922  16.607  1.00 54.99    -0.572 OA
HETATM   43  O5S SGN C   3      26.457  77.694  14.215  1.00 53.99    -0.572 OA
HETATM   44  O6S SGN C   3      25.014  79.017  15.682  1.00 55.43    -0.572 OA
ENDBRANCH  40  41
ENDBRANCH  39  40
ENDBRANCH  12  39
ENDBRANCH   7   8
ENDBRANCH   4   7
BRANCH   3  45
HETATM   45  O3  IDS C   2      28.823  84.590  16.596  1.00 39.65    -0.390 OA
ATOM     46  H3  IDS C   2      29.631  84.110  16.731  1.00  0.00     0.210 HD
ENDBRANCH   3  45
BRANCH   5  47
HETATM   47  C6  IDS C   2      26.751  84.749  12.092  1.00 36.10     0.206 C 
HETATM   48  O6A IDS C   2      25.960  83.786  12.195  1.00 32.44    -0.646 OA
HETATM   49  O6B IDS C   2      27.128  85.233  10.998  1.00 33.44    -0.646 OA
ENDBRANCH   5  47
BRANCH   2  50
HETATM   50  O2  IDS C   2      29.165  87.354  16.430  1.00 43.59    -0.244 OA
BRANCH  50  51
HETATM   51  S   IDS C   2      28.531  87.812  17.822  1.00 44.11     0.252 S 
HETATM   52  O1S IDS C   2      28.775  86.695  18.798  1.00 44.48    -0.572 OA
HETATM   53  O2S IDS C   2      27.090  88.042  17.587  1.00 44.29    -0.572 OA
HETATM   54  O3S IDS C   2      29.214  89.031  18.215  1.00 44.74    -0.572 OA
ENDBRANCH  50  51
ENDBRANCH   2  50
BRANCH   1  55
HETATM   55  O4  SGN C   1      27.428  88.386  14.092  1.00 44.73    -0.348 OA
BRANCH  55  56
HETATM   56  C4  SGN C   1      27.437  89.300  12.973  1.00 48.25     0.186 C 
HETATM   57  C3  SGN C   1      26.074  89.272  12.271  1.00 48.43     0.178 C 
HETATM   58  C2  SGN C   1      26.022  90.346  11.185  1.00 48.58     0.181 C 
HETATM   59  C1  SGN C   1      26.394  91.721  11.737  1.00 50.40     0.283 C 
HETATM   60  O5  SGN C   1      27.676  91.667  12.374  1.00 50.82    -0.349 OA
HETATM   61  C5  SGN C   1      27.722  90.726  13.473  1.00 51.58     0.181 C 
BRANCH  57  62
HETATM   62  O3  SGN C   1      25.859  88.000  11.681  1.00 46.09    -0.391 OA
ATOM     63  H3  SGN C   1      25.168  88.067  11.032  1.00  0.00     0.210 HD
ENDBRANCH  57  62
BRANCH  58  64
HETATM   64  N2  SGN C   1      24.703  90.402  10.590  1.00 48.56    -0.289 N 
ATOM     65  H2  SGN C   1      23.866  90.629  11.127  1.00  0.00     0.175 HD
BRANCH  64  66
HETATM   66  S1  SGN C   1      24.663  90.066   8.971  1.00 47.67     0.205 S 
HETATM   67  O1S SGN C   1      23.259  89.741   8.639  1.00 47.59    -0.578 OA
HETATM   68  O2S SGN C   1      25.561  88.921   8.788  1.00 48.55    -0.578 OA
HETATM   69  O3S SGN C   1      25.142  91.280   8.275  1.00 47.08    -0.578 OA
ENDBRANCH  64  66
ENDBRANCH  58  64
BRANCH  59  70
HETATM   70  O1  SGN C   1      25.452  92.126  12.671  1.00 51.36    -0.369 OA
ATOM     71  H1  SGN C   1      24.610  92.250  12.248  1.00  0.00     0.212 HD
ENDBRANCH  59  70
BRANCH  61  72
HETATM   72  C6  SGN C   1      29.087  90.861  14.100  1.00 55.48     0.227 C 
BRANCH  72  73
HETATM   73  O6  SGN C   1      30.090  90.926  13.064  1.00 61.59    -0.254 OA
BRANCH  73  74
HETATM   74  S2  SGN C   1      31.161  92.094  13.230  1.00 65.98     0.251 S 
HETATM   75  O4S SGN C   1      30.391  93.417  13.220  1.00 65.09    -0.572 OA
HETATM   76  O5S SGN C   1      32.067  91.989  12.102  1.00 65.58    -0.572 OA
HETATM   77  O6S SGN C   1      31.893  91.857  14.588  1.00 65.84    -0.572 OA
ENDBRANCH  73  74
ENDBRANCH  72  73
ENDBRANCH  61  72
ENDBRANCH  55  56
ENDBRANCH   1  55
TORSDOF 27
ENDMDL
MODEL 21
REMARK VINA RESULT:      -6.6     12.259     17.230
REMARK  27 active torsions:
REMARK  status: ('A' for Active; 'I' for Inactive)
REMARK    1  A    between atoms: C1_1  and  O1_2 
REMARK    2  A    between atoms: S1_5  and  N2_7 
REMARK    3  A    between atoms: C2_6  and  N2_7 
REMARK    4  A    between atoms: S2_10  and  O6_22 
REMARK    5  A    between atoms: C3_11  and  O3_12 
REMARK    6  A    between atoms: C4_15  and  O4_16 
REMARK    7  A    between atoms: O4_16  and  C1_24 
REMARK    8  A    between atoms: C5_18  and  C6_21 
REMARK    9  A    between atoms: C6_21  and  O6_22 
REMARK   10  A    between atoms: C2_26  and  O2_27 
REMARK   11  A    between atoms: O2_27  and  S_40 
REMARK   12  A    between atoms: C3_29  and  O3_30 
REMARK   13  A    between atoms: C4_33  and  O4_34 
REMARK   14  A    between atoms: O4_34  and  C1_41 
REMARK   15  A    between atoms: C5_35  and  C6_37 
REMARK   16  A    between atoms: S1_43  and  N2_45 
REMARK   17  A    between atoms: C2_44  and  N2_45 
REMARK   18  A    between atoms: S2_48  and  O6_60 
REMARK   19  A    between atoms: C3_49  and  O3_50 
REMARK   20  A    between atoms: C4_53  and  O4_54 
REMARK   21  A    between atoms: O4_54  and  C1_62 
REMARK   22  A    between atoms: C5_56  and  C6_59 
REMARK   23  A    between atoms: C6_59  and  O6_60 
REMARK   24  A    between atoms: C2_64  and  O2_65 
REMARK   25  A    between atoms: O2_65  and  S_77 
REMARK   26  A    between atoms: C3_67  and  O3_68 
REMARK   27  A    between atoms: C5_72  and  C6_74 
ROOT
HETATM    1  C1  IDS C   2      24.134  82.969  12.237  1.00 40.81     0.294 C 
HETATM    2  C2  IDS C   2      23.485  84.340  12.033  1.00 40.20     0.231 C 
HETATM    3  C3  IDS C   2      24.528  85.393  11.670  1.00 39.01     0.185 C 
HETATM    4  C4  IDS C   2      25.585  85.532  12.784  1.00 37.65     0.195 C 
HETATM    5  C5  IDS C   2      25.598  84.266  13.650  1.00 35.99     0.257 C 
HETATM    6  O5  IDS C   2      25.455  83.097  12.808  1.00 39.00    -0.340 OA
ENDROOT
BRANCH   4   7
HETATM    7  O4  IDS C   2      26.893  85.744  12.196  1.00 35.98    -0.348 OA
BRANCH   7   8
HETATM    8  C1  SGN C   3      27.303  87.080  12.071  1.00 35.40     0.287 C 
HETATM    9  C2  SGN C   3      28.229  87.237  10.852  1.00 33.71     0.182 C 
HETATM   10  C3  SGN C   3      29.618  86.635  11.094  1.00 35.79     0.178 C 
HETATM   11  C4  SGN C   3      30.197  87.054  12.456  1.00 36.62     0.186 C 
HETATM   12  C5  SGN C   3      29.162  86.841  13.553  1.00 39.32     0.181 C 
HETATM   13  O5  SGN C   3      27.952  87.552  13.238  1.00 37.58    -0.349 OA
BRANCH   9  14
HETATM   14  N2  SGN C   3      27.633  86.587   9.706  1.00 29.28    -0.289 N 
ATOM     15  H2  SGN C   3      27.444  85.585   9.707  1.00  0.00     0.175 HD
BRANCH  14  16
HETATM   16  S1  SGN C   3      27.271  87.526   8.396  1.00 27.84     0.205 S 
HETATM   17  O1S SGN C   3      27.080  86.580   7.312  1.00 27.65    -0.578 OA
HETATM   18  O2S SGN C   3      28.465  88.399   8.196  1.00 27.72    -0.578 OA
HETATM   19  O3S SGN C   3      26.036  88.322   8.681  1.00 28.50    -0.578 OA
ENDBRANCH  14  16
ENDBRANCH   9  14
BRANCH  10  20
HETATM   20  O3  SGN C   3      30.497  87.032  10.045  1.00 34.89    -0.391 OA
ATOM     21  H3  SGN C   3      31.368  86.691  10.216  1.00  0.00     0.210 HD
ENDBRANCH  10  20
BRANCH  11  22
HETATM   22  O4  SGN C   3      31.350  86.244  12.750  1.00 37.13    -0.348 OA
BRANCH  22  23
HETATM   23  C1  UAP C   4      31.127  84.876  12.755  1.00 39.64     0.294 C 
HETATM   24  C2  UAP C   4      32.171  84.174  11.905  1.00 38.70     0.228 C 
HETATM   25  C3  UAP C   4      31.868  82.680  11.833  1.00 38.51     0.156 C 
HETATM   26  C4  UAP C   4      31.408  82.044  13.226  1.00 38.14     0.077 C 
HETATM   27  C5  UAP C   4      31.138  82.979  14.236  1.00 38.51     0.228 C 
HETATM   28  O5  UAP C   4      31.241  84.425  14.098  1.00 37.46    -0.343 OA
BRANCH  24  29
HETATM   29  O2  UAP C   4      32.136  84.692  10.537  1.00 40.54    -0.244 OA
BRANCH  29  30
HETATM   30  S   UAP C   4      33.451  85.291   9.848  1.00 40.49     0.252 S 
HETATM   31  O1S UAP C   4      34.600  84.574  10.421  1.00 40.89    -0.572 OA
HETATM   32  O2S UAP C   4      33.487  86.724  10.177  1.00 37.88    -0.572 OA
HETATM   33  O3S UAP C   4      33.325  85.060   8.400  1.00 37.47    -0.572 OA
ENDBRANCH  29  30
ENDBRANCH  24  29
BRANCH  25  34
HETATM   34  O3  UAP C   4      33.020  81.997  11.364  1.00 38.58    -0.393 OA
ATOM     35  H3  UAP C   4      33.750  82.604  11.341  1.00  0.00     0.210 HD
ENDBRANCH  25  34
BRANCH  27  36
HETATM   36  C6  UAP C   4      30.736  82.576  15.613  1.00 37.96     0.203 C 
HETATM   37  O6A UAP C   4      29.898  83.279  16.211  1.00 40.05    -0.646 OA
HETATM   38  O6B UAP C   4      31.258  81.553  16.106  1.00 36.71    -0.646 OA
ENDBRANCH  27  36
ENDBRANCH  22  23
ENDBRANCH  11  22
BRANCH  12  39
HETATM   39  C6  SGN C   3      29.603  87.300  14.915  1.00 42.65     0.227 C 
BRANCH  39  40
HETATM   40  O6  SGN C   3      30.120  88.636  14.729  1.00 51.09    -0.254 OA
BRANCH  40  41
HETATM   41  S2  SGN C   3      29.919  89.649  15.945  1.00 54.80     0.251 S 
HETATM   42  O4S SGN C   3      31.250  89.923  16.517  1.00 54.99    -0.572 OA
HETATM   43  O5S SGN C   3      29.024  88.966  16.926  1.00 53.99    -0.572 OA
HETATM   44  O6S SGN C   3      29.310  90.853  15.395  1.00 55.43    -0.572 OA
ENDBRANCH  40  41
ENDBRANCH  39  40
ENDBRANCH  12  39
ENDBRANCH   7   8
ENDBRANCH   4   7
BRANCH   3  45
HETATM   45  O3  IDS C   2      23.886  86.642  11.455  1.00 39.65    -0.390 OA
ATOM     46  H3  IDS C   2      24.541  87.322  11.354  1.00  0.00     0.210 HD
ENDBRANCH   3  45
BRANCH   5  47
HETATM   47  C6  IDS C   2      26.848  84.080  14.499  1.00 36.10     0.206 C 
HETATM   48  O6A IDS C   2      26.985  84.818  15.500  1.00 32.44    -0.646 OA
HETATM   49  O6B IDS C   2      27.669  83.193  14.164  1.00 33.44    -0.646 OA
ENDBRANCH   5  47
BRANCH   2  50
HETATM   50  O2  IDS C   2      22.513  84.267  10.950  1.00 43.59    -0.244 OA
BRANCH  50  51
HETATM   51  S   IDS C   2      21.002  84.707  11.214  1.00 44.11     0.252 S 
HETATM   52  O1S IDS C   2      20.144  83.891  10.288  1.00 44.48    -0.572 OA
HETATM   53  O2S IDS C   2      20.915  86.154  10.924  1.00 44.29    -0.572 OA
HETATM   54  O3S IDS C   2      20.717  84.419  12.608  1.00 44.74    -0.572 OA
ENDBRANCH  50  51
ENDBRANCH   2  50
BRANCH   1  55
HETATM   55  O4  SGN C   1      23.353  82.210  13.097  1.00 44.73    -0.348 OA
BRANCH  55  56
HETATM   56  C4  SGN C   1      23.123  80.827  12.748  1.00 48.25     0.186 C 
HETATM   57  C3  SGN C   1      22.812  80.715  11.250  1.00 48.43     0.178 C 
HETATM   58  C2  SGN C   1      22.721  79.245  10.842  1.00 48.58     0.181 C 
HETATM   59  C1  SGN C   1      23.966  78.467  11.265  1.00 50.40     0.283 C 
HETATM   60  O5  SGN C   1      24.188  78.618  12.672  1.00 50.82    -0.349 OA
HETATM   61  C5  SGN C   1      24.376  79.996  13.069  1.00 51.58     0.181 C 
BRANCH  57  62
HETATM   62  O3  SGN C   1      21.581  81.359  10.962  1.00 46.09    -0.391 OA
ATOM     63  H3  SGN C   1      21.456  82.082  11.566  1.00  0.00     0.210 HD
ENDBRANCH  57  62
BRANCH  58  64
HETATM   64  N2  SGN C   1      22.538  79.128   9.410  1.00 48.56    -0.289 N 
ATOM     65  H2  SGN C   1      23.318  79.125   8.753  1.00  0.00     0.175 HD
BRANCH  64  66
HETATM   66  S1  SGN C   1      20.960  79.002   8.927  1.00 47.67     0.205 S 
HETATM   67  O1S SGN C   1      20.168  78.699  10.138  1.00 47.59    -0.578 OA
HETATM   68  O2S SGN C   1      20.938  77.905   7.954  1.00 48.55    -0.578 OA
HETATM   69  O3S SGN C   1      20.596  80.303   8.324  1.00 47.08    -0.578 OA
ENDBRANCH  64  66
ENDBRANCH  58  64
BRANCH  59  70
HETATM   70  O1  SGN C   1      25.076  78.947  10.586  1.00 51.36    -0.369 OA
ATOM     71  H1  SGN C   1      25.311  78.350   9.886  1.00  0.00     0.212 HD
ENDBRANCH  59  70
BRANCH  61  72
HETATM   72  C6  SGN C   1      24.701  79.980  14.542  1.00 55.48     0.227 C 
BRANCH  72  73
HETATM   73  O6  SGN C   1      26.020  80.529  14.752  1.00 61.59    -0.254 OA
BRANCH  73  74
HETATM   74  S2  SGN C   1      27.225  79.571  14.339  1.00 65.98     0.251 S 
HETATM   75  O4S SGN C   1      28.456  80.030  15.125  1.00 65.09    -0.572 OA
HETATM   76  O5S SGN C   1      27.408  79.729  12.908  1.00 65.58    -0.572 OA
HETATM   77  O6S SGN C   1      26.805  78.115  14.714  1.00 65.84    -0.572 OA
ENDBRANCH  73  74
ENDBRANCH  72  73
ENDBRANCH  61  72
ENDBRANCH  55  56
ENDBRANCH   1  55
TORSDOF 27
ENDMDL
MODEL 22
REMARK VINA RESULT:      -6.6     12.212     16.688
REMARK  27 active torsions:
REMARK  status: ('A' for Active; 'I' for Inactive)
REMARK    1  A    between atoms: C1_1  and  O1_2 
REMARK    2  A    between atoms: S1_5  and  N2_7 
REMARK    3  A    between atoms: C2_6  and  N2_7 
REMARK    4  A    between atoms: S2_10  and  O6_22 
REMARK    5  A    between atoms: C3_11  and  O3_12 
REMARK    6  A    between atoms: C4_15  and  O4_16 
REMARK    7  A    between atoms: O4_16  and  C1_24 
REMARK    8  A    between atoms: C5_18  and  C6_21 
REMARK    9  A    between atoms: C6_21  and  O6_22 
REMARK   10  A    between atoms: C2_26  and  O2_27 
REMARK   11  A    between atoms: O2_27  and  S_40 
REMARK   12  A    between atoms: C3_29  and  O3_30 
REMARK   13  A    between atoms: C4_33  and  O4_34 
REMARK   14  A    between atoms: O4_34  and  C1_41 
REMARK   15  A    between atoms: C5_35  and  C6_37 
REMARK   16  A    between atoms: S1_43  and  N2_45 
REMARK   17  A    between atoms: C2_44  and  N2_45 
REMARK   18  A    between atoms: S2_48  and  O6_60 
REMARK   19  A    between atoms: C3_49  and  O3_50 
REMARK   20  A    between atoms: C4_53  and  O4_54 
REMARK   21  A    between atoms: O4_54  and  C1_62 
REMARK   22  A    between atoms: C5_56  and  C6_59 
REMARK   23  A    between atoms: C6_59  and  O6_60 
REMARK   24  A    between atoms: C2_64  and  O2_65 
REMARK   25  A    between atoms: O2_65  and  S_77 
REMARK   26  A    between atoms: C3_67  and  O3_68 
REMARK   27  A    between atoms: C5_72  and  C6_74 
ROOT
HETATM    1  C1  IDS C   2      28.294  87.328  14.114  1.00 40.81     0.294 C 
HETATM    2  C2  IDS C   2      28.254  86.620  15.470  1.00 40.20     0.231 C 
HETATM    3  C3  IDS C   2      28.722  85.173  15.347  1.00 39.01     0.185 C 
HETATM    4  C4  IDS C   2      27.824  84.382  14.375  1.00 37.65     0.195 C 
HETATM    5  C5  IDS C   2      27.084  85.352  13.444  1.00 35.99     0.257 C 
HETATM    6  O5  IDS C   2      27.978  86.416  13.040  1.00 39.00    -0.340 OA
ENDROOT
BRANCH   4   7
HETATM    7  O4  IDS C   2      28.631  83.464  13.595  1.00 35.98    -0.348 OA
BRANCH   7   8
HETATM    8  C1  SGN C   3      29.495  82.633  14.323  1.00 35.40     0.287 C 
HETATM    9  C2  SGN C   3      30.773  82.358  13.511  1.00 33.71     0.182 C 
HETATM   10  C3  SGN C   3      30.527  81.398  12.342  1.00 35.79     0.178 C 
HETATM   11  C4  SGN C   3      29.708  80.168  12.771  1.00 36.62     0.186 C 
HETATM   12  C5  SGN C   3      28.482  80.606  13.563  1.00 39.32     0.181 C 
HETATM   13  O5  SGN C   3      28.880  81.410  14.687  1.00 37.58    -0.349 OA
BRANCH   9  14
HETATM   14  N2  SGN C   3      31.291  83.604  12.989  1.00 29.28    -0.289 N 
ATOM     15  H2  SGN C   3      30.732  84.187  12.367  1.00  0.00     0.175 HD
BRANCH  14  16
HETATM   16  S1  SGN C   3      32.818  84.047  13.437  1.00 27.84     0.205 S 
HETATM   17  O1S SGN C   3      33.690  83.245  12.600  1.00 27.65    -0.578 OA
HETATM   18  O2S SGN C   3      32.920  83.693  14.884  1.00 27.72    -0.578 OA
HETATM   19  O3S SGN C   3      32.998  85.515  13.205  1.00 28.50    -0.578 OA
ENDBRANCH  14  16
ENDBRANCH   9  14
BRANCH  10  20
HETATM   20  O3  SGN C   3      31.776  80.987  11.793  1.00 34.89    -0.391 OA
ATOM     21  H3  SGN C   3      31.631  80.293  11.160  1.00  0.00     0.210 HD
ENDBRANCH  10  20
BRANCH  11  22
HETATM   22  O4  SGN C   3      29.267  79.461  11.598  1.00 37.13    -0.348 OA
BRANCH  22  23
HETATM   23  C1  UAP C   4      28.920  80.259  10.520  1.00 39.64     0.294 C 
HETATM   24  C2  UAP C   4      29.475  79.672   9.235  1.00 38.70     0.228 C 
HETATM   25  C3  UAP C   4      29.176  80.602   8.062  1.00 38.51     0.156 C 
HETATM   26  C4  UAP C   4      27.703  81.224   8.089  1.00 38.14     0.077 C 
HETATM   27  C5  UAP C   4      26.996  81.007   9.281  1.00 38.51     0.228 C 
HETATM   28  O5  UAP C   4      27.500  80.289  10.442  1.00 37.46    -0.343 OA
BRANCH  24  29
HETATM   29  O2  UAP C   4      30.930  79.544   9.328  1.00 40.54    -0.244 OA
BRANCH  29  30
HETATM   30  S   UAP C   4      31.620  78.118   9.558  1.00 40.49     0.252 S 
HETATM   31  O1S UAP C   4      30.537  77.127   9.639  1.00 40.89    -0.572 OA
HETATM   32  O2S UAP C   4      32.370  78.207  10.819  1.00 37.88    -0.572 OA
HETATM   33  O3S UAP C   4      32.504  77.875   8.406  1.00 37.47    -0.572 OA
ENDBRANCH  29  30
ENDBRANCH  24  29
BRANCH  25  34
HETATM   34  O3  UAP C   4      29.362  79.889   6.849  1.00 38.58    -0.393 OA
ATOM     35  H3  UAP C   4      28.732  79.179   6.809  1.00  0.00     0.210 HD
ENDBRANCH  25  34
BRANCH  27  36
HETATM   36  C6  UAP C   4      25.597  81.476   9.477  1.00 37.96     0.203 C 
HETATM   37  O6A UAP C   4      25.041  82.080   8.539  1.00 40.05    -0.646 OA
HETATM   38  O6B UAP C   4      25.044  81.246  10.574  1.00 36.71    -0.646 OA
ENDBRANCH  27  36
ENDBRANCH  22  23
ENDBRANCH  11  22
BRANCH  12  39
HETATM   39  C6  SGN C   3      27.657  79.470  14.101  1.00 42.65     0.227 C 
BRANCH  39  40
HETATM   40  O6  SGN C   3      26.364  79.593  13.472  1.00 51.09    -0.254 OA
BRANCH  40  41
HETATM   41  S2  SGN C   3      25.173  80.116  14.397  1.00 54.80     0.251 S 
HETATM   42  O4S SGN C   3      25.492  81.501  14.788  1.00 54.99    -0.572 OA
HETATM   43  O5S SGN C   3      25.120  79.204  15.579  1.00 53.99    -0.572 OA
HETATM   44  O6S SGN C   3      23.956  80.047  13.598  1.00 55.43    -0.572 OA
ENDBRANCH  40  41
ENDBRANCH  39  40
ENDBRANCH  12  39
ENDBRANCH   7   8
ENDBRANCH   4   7
BRANCH   3  45
HETATM   45  O3  IDS C   2      28.705  84.558  16.628  1.00 39.65    -0.390 OA
ATOM     46  H3  IDS C   2      29.500  84.052  16.748  1.00  0.00     0.210 HD
ENDBRANCH   3  45
BRANCH   5  47
HETATM   47  C6  IDS C   2      26.510  84.720  12.183  1.00 36.10     0.206 C 
HETATM   48  O6A IDS C   2      25.635  83.837  12.324  1.00 32.44    -0.646 OA
HETATM   49  O6B IDS C   2      26.927  85.124  11.071  1.00 33.44    -0.646 OA
ENDBRANCH   5  47
BRANCH   2  50
HETATM   50  O2  IDS C   2      29.134  87.306  16.408  1.00 43.59    -0.244 OA
BRANCH  50  51
HETATM   51  S   IDS C   2      28.556  87.810  17.808  1.00 44.11     0.252 S 
HETATM   52  O1S IDS C   2      29.306  89.063  18.161  1.00 44.48    -0.572 OA
HETATM   53  O2S IDS C   2      28.787  86.728  18.788  1.00 44.29    -0.572 OA
HETATM   54  O3S IDS C   2      27.141  88.065  17.611  1.00 44.74    -0.572 OA
ENDBRANCH  50  51
ENDBRANCH   2  50
BRANCH   1  55
HETATM   55  O4  SGN C   1      27.367  88.361  14.104  1.00 44.73    -0.348 OA
BRANCH  55  56
HETATM   56  C4  SGN C   1      27.419  89.298  13.006  1.00 48.25     0.186 C 
HETATM   57  C3  SGN C   1      26.084  89.288  12.252  1.00 48.43     0.178 C 
HETATM   58  C2  SGN C   1      26.075  90.385  11.187  1.00 48.58     0.181 C 
HETATM   59  C1  SGN C   1      26.428  91.747  11.782  1.00 50.40     0.283 C 
HETATM   60  O5  SGN C   1      27.685  91.676  12.466  1.00 50.82    -0.349 OA
HETATM   61  C5  SGN C   1      27.687  90.713  13.545  1.00 51.58     0.181 C 
BRANCH  57  62
HETATM   62  O3  SGN C   1      25.890  88.029  11.628  1.00 46.09    -0.391 OA
ATOM     63  H3  SGN C   1      26.232  87.344  12.192  1.00  0.00     0.210 HD
ENDBRANCH  57  62
BRANCH  58  64
HETATM   64  N2  SGN C   1      24.779  90.455  10.545  1.00 48.56    -0.289 N 
ATOM     65  H2  SGN C   1      23.924  90.683  11.052  1.00  0.00     0.175 HD
BRANCH  64  66
HETATM   66  S1  SGN C   1      24.797  90.135   8.922  1.00 47.67     0.205 S 
HETATM   67  O1S SGN C   1      23.424  89.727   8.553  1.00 47.59    -0.578 OA
HETATM   68  O2S SGN C   1      25.770  89.051   8.749  1.00 48.55    -0.578 OA
HETATM   69  O3S SGN C   1      25.215  91.385   8.249  1.00 47.08    -0.578 OA
ENDBRANCH  64  66
ENDBRANCH  58  64
BRANCH  59  70
HETATM   70  O1  SGN C   1      25.451  92.134  12.687  1.00 51.36    -0.369 OA
ATOM     71  H1  SGN C   1      25.848  92.323  13.529  1.00  0.00     0.212 HD
ENDBRANCH  59  70
BRANCH  61  72
HETATM   72  C6  SGN C   1      29.027  90.832  14.226  1.00 55.48     0.227 C 
BRANCH  72  73
HETATM   73  O6  SGN C   1      29.505  92.191  14.119  1.00 61.59    -0.254 OA
BRANCH  73  74
HETATM   74  S2  SGN C   1      31.019  92.341  13.645  1.00 65.98     0.251 S 
HETATM   75  O4S SGN C   1      31.892  91.653  14.697  1.00 65.09    -0.572 OA
HETATM   76  O5S SGN C   1      31.288  93.765  13.566  1.00 65.58    -0.572 OA
HETATM   77  O6S SGN C   1      31.134  91.649  12.250  1.00 65.84    -0.572 OA
ENDBRANCH  73  74
ENDBRANCH  72  73
ENDBRANCH  61  72
ENDBRANCH  55  56
ENDBRANCH   1  55
TORSDOF 27
ENDMDL
MODEL 23
REMARK VINA RESULT:      -6.5     11.159     16.945
REMARK  27 active torsions:
REMARK  status: ('A' for Active; 'I' for Inactive)
REMARK    1  A    between atoms: C1_1  and  O1_2 
REMARK    2  A    between atoms: S1_5  and  N2_7 
REMARK    3  A    between atoms: C2_6  and  N2_7 
REMARK    4  A    between atoms: S2_10  and  O6_22 
REMARK    5  A    between atoms: C3_11  and  O3_12 
REMARK    6  A    between atoms: C4_15  and  O4_16 
REMARK    7  A    between atoms: O4_16  and  C1_24 
REMARK    8  A    between atoms: C5_18  and  C6_21 
REMARK    9  A    between atoms: C6_21  and  O6_22 
REMARK   10  A    between atoms: C2_26  and  O2_27 
REMARK   11  A    between atoms: O2_27  and  S_40 
REMARK   12  A    between atoms: C3_29  and  O3_30 
REMARK   13  A    between atoms: C4_33  and  O4_34 
REMARK   14  A    between atoms: O4_34  and  C1_41 
REMARK   15  A    between atoms: C5_35  and  C6_37 
REMARK   16  A    between atoms: S1_43  and  N2_45 
REMARK   17  A    between atoms: C2_44  and  N2_45 
REMARK   18  A    between atoms: S2_48  and  O6_60 
REMARK   19  A    between atoms: C3_49  and  O3_50 
REMARK   20  A    between atoms: C4_53  and  O4_54 
REMARK   21  A    between atoms: O4_54  and  C1_62 
REMARK   22  A    between atoms: C5_56  and  C6_59 
REMARK   23  A    between atoms: C6_59  and  O6_60 
REMARK   24  A    between atoms: C2_64  and  O2_65 
REMARK   25  A    between atoms: O2_65  and  S_77 
REMARK   26  A    between atoms: C3_67  and  O3_68 
REMARK   27  A    between atoms: C5_72  and  C6_74 
ROOT
HETATM    1  C1  IDS C   2      28.332  87.884  14.228  1.00 40.81     0.294 C 
HETATM    2  C2  IDS C   2      28.328  86.927  15.422  1.00 40.20     0.231 C 
HETATM    3  C3  IDS C   2      28.825  85.542  15.018  1.00 39.01     0.185 C 
HETATM    4  C4  IDS C   2      27.928  84.932  13.921  1.00 37.65     0.195 C 
HETATM    5  C5  IDS C   2      27.154  86.045  13.203  1.00 35.99     0.257 C 
HETATM    6  O5  IDS C   2      28.019  87.188  13.001  1.00 39.00    -0.340 OA
ENDROOT
BRANCH   4   7
HETATM    7  O4  IDS C   2      28.743  84.201  12.971  1.00 35.98    -0.348 OA
BRANCH   7   8
HETATM    8  C1  SGN C   3      29.824  83.487  13.507  1.00 35.40     0.287 C 
HETATM    9  C2  SGN C   3      30.829  83.135  12.396  1.00 33.71     0.182 C 
HETATM   10  C3  SGN C   3      30.311  82.027  11.472  1.00 35.79     0.178 C 
HETATM   11  C4  SGN C   3      29.721  80.847  12.263  1.00 36.62     0.186 C 
HETATM   12  C5  SGN C   3      28.751  81.360  13.321  1.00 39.32     0.181 C 
HETATM   13  O5  SGN C   3      29.410  82.310  14.177  1.00 37.58    -0.349 OA
BRANCH   9  14
HETATM   14  N2  SGN C   3      31.104  84.312  11.603  1.00 29.28    -0.289 N 
ATOM     15  H2  SGN C   3      30.601  84.492  10.734  1.00  0.00     0.175 HD
BRANCH  14  16
HETATM   16  S1  SGN C   3      32.261  85.354  12.153  1.00 27.84     0.205 S 
HETATM   17  O1S SGN C   3      32.817  85.949  10.952  1.00 27.65    -0.578 OA
HETATM   18  O2S SGN C   3      33.244  84.499  12.881  1.00 27.72    -0.578 OA
HETATM   19  O3S SGN C   3      31.629  86.371  13.052  1.00 28.50    -0.578 OA
ENDBRANCH  14  16
ENDBRANCH   9  14
BRANCH  10  20
HETATM   20  O3  SGN C   3      31.371  81.572  10.634  1.00 34.89    -0.391 OA
ATOM     21  H3  SGN C   3      32.196  81.646  11.099  1.00  0.00     0.210 HD
ENDBRANCH  10  20
BRANCH  11  22
HETATM   22  O4  SGN C   3      29.002  79.986  11.362  1.00 37.13    -0.348 OA
BRANCH  22  23
HETATM   23  C1  UAP C   4      28.126  80.628  10.500  1.00 39.64     0.294 C 
HETATM   24  C2  UAP C   4      28.270  80.067   9.097  1.00 38.70     0.228 C 
HETATM   25  C3  UAP C   4      27.377  80.839   8.130  1.00 38.51     0.156 C 
HETATM   26  C4  UAP C   4      25.928  81.174   8.714  1.00 38.14     0.077 C 
HETATM   27  C5  UAP C   4      25.773  80.913  10.084  1.00 38.51     0.228 C 
HETATM   28  O5  UAP C   4      26.805  80.385  10.964  1.00 37.46    -0.343 OA
BRANCH  24  29
HETATM   29  O2  UAP C   4      29.650  80.221   8.632  1.00 40.54    -0.244 OA
BRANCH  29  30
HETATM   30  S   UAP C   4      30.588  78.945   8.394  1.00 40.49     0.252 S 
HETATM   31  O1S UAP C   4      31.765  79.112   9.259  1.00 40.89    -0.572 OA
HETATM   32  O2S UAP C   4      30.955  78.949   6.971  1.00 37.88    -0.572 OA
HETATM   33  O3S UAP C   4      29.801  77.756   8.758  1.00 37.47    -0.572 OA
ENDBRANCH  29  30
ENDBRANCH  24  29
BRANCH  25  34
HETATM   34  O3  UAP C   4      27.238  80.092   6.932  1.00 38.58    -0.393 OA
ATOM     35  H3  UAP C   4      27.565  80.608   6.205  1.00  0.00     0.210 HD
ENDBRANCH  25  34
BRANCH  27  36
HETATM   36  C6  UAP C   4      24.483  81.124  10.798  1.00 37.96     0.203 C 
HETATM   37  O6A UAP C   4      23.451  80.619  10.311  1.00 40.05    -0.646 OA
HETATM   38  O6B UAP C   4      24.492  81.799  11.849  1.00 36.71    -0.646 OA
ENDBRANCH  27  36
ENDBRANCH  22  23
ENDBRANCH  11  22
BRANCH  12  39
HETATM   39  C6  SGN C   3      28.181  80.287  14.207  1.00 42.65     0.227 C 
BRANCH  39  40
HETATM   40  O6  SGN C   3      28.995  80.293  15.400  1.00 51.09    -0.254 OA
BRANCH  40  41
HETATM   41  S2  SGN C   3      29.665  78.903  15.806  1.00 54.80     0.251 S 
HETATM   42  O4S SGN C   3      30.955  79.207  16.452  1.00 54.99    -0.572 OA
HETATM   43  O5S SGN C   3      29.847  78.131  14.541  1.00 53.99    -0.572 OA
HETATM   44  O6S SGN C   3      28.746  78.241  16.722  1.00 55.43    -0.572 OA
ENDBRANCH  40  41
ENDBRANCH  39  40
ENDBRANCH  12  39
ENDBRANCH   7   8
ENDBRANCH   4   7
BRANCH   3  45
HETATM   45  O3  IDS C   2      28.840  84.692  16.157  1.00 39.65    -0.390 OA
ATOM     46  H3  IDS C   2      29.335  85.106  16.853  1.00  0.00     0.210 HD
ENDBRANCH   3  45
BRANCH   5  47
HETATM   47  C6  IDS C   2      26.574  85.654  11.850  1.00 36.10     0.206 C 
HETATM   48  O6A IDS C   2      27.092  86.158  10.829  1.00 32.44    -0.646 OA
HETATM   49  O6B IDS C   2      25.621  84.839  11.824  1.00 33.44    -0.646 OA
ENDBRANCH   5  47
BRANCH   2  50
HETATM   50  O2  IDS C   2      29.208  87.441  16.465  1.00 43.59    -0.244 OA
BRANCH  50  51
HETATM   51  S   IDS C   2      28.604  87.808  17.896  1.00 44.11     0.252 S 
HETATM   52  O1S IDS C   2      29.331  89.034  18.372  1.00 44.48    -0.572 OA
HETATM   53  O2S IDS C   2      28.837  86.644  18.777  1.00 44.29    -0.572 OA
HETATM   54  O3S IDS C   2      27.187  88.062  17.703  1.00 44.74    -0.572 OA
ENDBRANCH  50  51
ENDBRANCH   2  50
BRANCH   1  55
HETATM   55  O4  SGN C   1      27.383  88.877  14.427  1.00 44.73    -0.348 OA
BRANCH  55  56
HETATM   56  C4  SGN C   1      27.055  89.725  13.304  1.00 48.25     0.186 C 
HETATM   57  C3  SGN C   1      25.532  89.853  13.179  1.00 48.43     0.178 C 
HETATM   58  C2  SGN C   1      25.178  90.869  12.094  1.00 48.58     0.181 C 
HETATM   59  C1  SGN C   1      25.884  92.204  12.323  1.00 50.40     0.283 C 
HETATM   60  O5  SGN C   1      27.299  92.003  12.427  1.00 50.82    -0.349 OA
HETATM   61  C5  SGN C   1      27.666  91.121  13.513  1.00 51.58     0.181 C 
BRANCH  57  62
HETATM   62  O3  SGN C   1      24.966  88.595  12.845  1.00 46.09    -0.391 OA
ATOM     63  H3  SGN C   1      24.850  88.083  13.637  1.00  0.00     0.210 HD
ENDBRANCH  57  62
BRANCH  58  64
HETATM   64  N2  SGN C   1      23.746  91.078  12.044  1.00 48.56    -0.289 N 
ATOM     65  H2  SGN C   1      23.234  91.566  12.779  1.00  0.00     0.175 HD
BRANCH  64  66
HETATM   66  S1  SGN C   1      23.007  90.461  10.698  1.00 47.67     0.205 S 
HETATM   67  O1S SGN C   1      22.493  89.125  11.070  1.00 47.59    -0.578 OA
HETATM   68  O2S SGN C   1      24.055  90.392   9.675  1.00 48.55    -0.578 OA
HETATM   69  O3S SGN C   1      21.925  91.403  10.340  1.00 47.08    -0.578 OA
ENDBRANCH  64  66
ENDBRANCH  58  64
BRANCH  59  70
HETATM   70  O1  SGN C   1      25.430  92.781  13.501  1.00 51.36    -0.369 OA
ATOM     71  H1  SGN C   1      24.811  93.473  13.303  1.00  0.00     0.212 HD
ENDBRANCH  59  70
BRANCH  61  72
HETATM   72  C6  SGN C   1      29.173  91.095  13.558  1.00 55.48     0.227 C 
BRANCH  72  73
HETATM   73  O6  SGN C   1      29.679  92.448  13.571  1.00 61.59    -0.254 OA
BRANCH  73  74
HETATM   74  S2  SGN C   1      31.237  92.590  13.267  1.00 65.98     0.251 S 
HETATM   75  O4S SGN C   1      31.499  91.906  11.923  1.00 65.09    -0.572 OA
HETATM   76  O5S SGN C   1      31.933  91.928  14.355  1.00 65.58    -0.572 OA
HETATM   77  O6S SGN C   1      31.558  94.117  13.215  1.00 65.84    -0.572 OA
ENDBRANCH  73  74
ENDBRANCH  72  73
ENDBRANCH  61  72
ENDBRANCH  55  56
ENDBRANCH   1  55
TORSDOF 27
ENDMDL
MODEL 24
REMARK VINA RESULT:      -6.4      4.563      8.401
REMARK  27 active torsions:
REMARK  status: ('A' for Active; 'I' for Inactive)
REMARK    1  A    between atoms: C1_1  and  O1_2 
REMARK    2  A    between atoms: S1_5  and  N2_7 
REMARK    3  A    between atoms: C2_6  and  N2_7 
REMARK    4  A    between atoms: S2_10  and  O6_22 
REMARK    5  A    between atoms: C3_11  and  O3_12 
REMARK    6  A    between atoms: C4_15  and  O4_16 
REMARK    7  A    between atoms: O4_16  and  C1_24 
REMARK    8  A    between atoms: C5_18  and  C6_21 
REMARK    9  A    between atoms: C6_21  and  O6_22 
REMARK   10  A    between atoms: C2_26  and  O2_27 
REMARK   11  A    between atoms: O2_27  and  S_40 
REMARK   12  A    between atoms: C3_29  and  O3_30 
REMARK   13  A    between atoms: C4_33  and  O4_34 
REMARK   14  A    between atoms: O4_34  and  C1_41 
REMARK   15  A    between atoms: C5_35  and  C6_37 
REMARK   16  A    between atoms: S1_43  and  N2_45 
REMARK   17  A    between atoms: C2_44  and  N2_45 
REMARK   18  A    between atoms: S2_48  and  O6_60 
REMARK   19  A    between atoms: C3_49  and  O3_50 
REMARK   20  A    between atoms: C4_53  and  O4_54 
REMARK   21  A    between atoms: O4_54  and  C1_62 
REMARK   22  A    between atoms: C5_56  and  C6_59 
REMARK   23  A    between atoms: C6_59  and  O6_60 
REMARK   24  A    between atoms: C2_64  and  O2_65 
REMARK   25  A    between atoms: O2_65  and  S_77 
REMARK   26  A    between atoms: C3_67  and  O3_68 
REMARK   27  A    between atoms: C5_72  and  C6_74 
ROOT
HETATM    1  C1  IDS C   2      31.650  73.316  12.693  1.00 40.81     0.294 C 
HETATM    2  C2  IDS C   2      31.337  74.390  13.737  1.00 40.20     0.231 C 
HETATM    3  C3  IDS C   2      32.269  74.275  14.940  1.00 39.01     0.185 C 
HETATM    4  C4  IDS C   2      32.126  72.898  15.620  1.00 37.65     0.195 C 
HETATM    5  C5  IDS C   2      31.518  71.891  14.635  1.00 35.99     0.257 C 
HETATM    6  O5  IDS C   2      32.089  72.091  13.320  1.00 39.00    -0.340 OA
ENDROOT
BRANCH   4   7
HETATM    7  O4  IDS C   2      33.424  72.434  16.067  1.00 35.98    -0.348 OA
BRANCH   7   8
HETATM    8  C1  SGN C   3      34.165  73.333  16.847  1.00 35.40     0.287 C 
HETATM    9  C2  SGN C   3      35.562  72.756  17.137  1.00 33.71     0.182 C 
HETATM   10  C3  SGN C   3      35.520  71.612  18.156  1.00 35.79     0.178 C 
HETATM   11  C4  SGN C   3      34.654  71.963  19.379  1.00 36.62     0.186 C 
HETATM   12  C5  SGN C   3      33.311  72.521  18.926  1.00 39.32     0.181 C 
HETATM   13  O5  SGN C   3      33.511  73.653  18.062  1.00 37.58    -0.349 OA
BRANCH   9  14
HETATM   14  N2  SGN C   3      36.145  72.263  15.909  1.00 29.28    -0.289 N 
ATOM     15  H2  SGN C   3      35.695  71.523  15.371  1.00  0.00     0.175 HD
BRANCH  14  16
HETATM   16  S1  SGN C   3      37.566  72.942  15.409  1.00 27.84     0.205 S 
HETATM   17  O1S SGN C   3      38.135  71.967  14.498  1.00 27.65    -0.578 OA
HETATM   18  O2S SGN C   3      38.376  73.114  16.650  1.00 27.72    -0.578 OA
HETATM   19  O3S SGN C   3      37.283  74.250  14.739  1.00 28.50    -0.578 OA
ENDBRANCH  14  16
ENDBRANCH   9  14
BRANCH  10  20
HETATM   20  O3  SGN C   3      36.846  71.295  18.571  1.00 34.89    -0.391 OA
ATOM     21  H3  SGN C   3      37.459  71.886  18.150  1.00  0.00     0.210 HD
ENDBRANCH  10  20
BRANCH  11  22
HETATM   22  O4  SGN C   3      34.419  70.771  20.149  1.00 37.13    -0.348 OA
BRANCH  22  23
HETATM   23  C1  UAP C   4      34.893  70.802  21.451  1.00 39.64     0.294 C 
HETATM   24  C2  UAP C   4      34.997  69.392  22.004  1.00 38.70     0.228 C 
HETATM   25  C3  UAP C   4      35.426  69.433  23.468  1.00 38.51     0.156 C 
HETATM   26  C4  UAP C   4      36.575  70.502  23.776  1.00 38.14     0.077 C 
HETATM   27  C5  UAP C   4      36.853  71.384  22.721  1.00 38.51     0.228 C 
HETATM   28  O5  UAP C   4      36.188  71.388  21.426  1.00 37.46    -0.343 OA
BRANCH  24  29
HETATM   29  O2  UAP C   4      33.690  68.734  21.951  1.00 40.54    -0.244 OA
BRANCH  29  30
HETATM   30  S   UAP C   4      33.570  67.157  21.699  1.00 40.49     0.252 S 
HETATM   31  O1S UAP C   4      33.083  66.559  22.950  1.00 40.89    -0.572 OA
HETATM   32  O2S UAP C   4      34.918  66.678  21.357  1.00 37.88    -0.572 OA
HETATM   33  O3S UAP C   4      32.620  66.968  20.591  1.00 37.47    -0.572 OA
ENDBRANCH  29  30
ENDBRANCH  24  29
BRANCH  25  34
HETATM   34  O3  UAP C   4      35.870  68.143  23.855  1.00 38.58    -0.393 OA
ATOM     35  H3  UAP C   4      35.541  67.950  24.725  1.00  0.00     0.210 HD
ENDBRANCH  25  34
BRANCH  27  36
HETATM   36  C6  UAP C   4      37.918  72.421  22.807  1.00 37.96     0.203 C 
HETATM   37  O6A UAP C   4      37.955  73.146  23.821  1.00 40.05    -0.646 OA
HETATM   38  O6B UAP C   4      38.724  72.521  21.857  1.00 36.71    -0.646 OA
ENDBRANCH  27  36
ENDBRANCH  22  23
ENDBRANCH  11  22
BRANCH  12  39
HETATM   39  C6  SGN C   3      32.421  72.974  20.050  1.00 42.65     0.227 C 
BRANCH  39  40
HETATM   40  O6  SGN C   3      31.144  73.268  19.442  1.00 51.09    -0.254 OA
BRANCH  40  41
HETATM   41  S2  SGN C   3      30.587  74.749  19.648  1.00 54.80     0.251 S 
HETATM   42  O4S SGN C   3      31.643  75.530  20.318  1.00 54.99    -0.572 OA
HETATM   43  O5S SGN C   3      29.363  74.630  20.496  1.00 53.99    -0.572 OA
HETATM   44  O6S SGN C   3      30.285  75.275  18.323  1.00 55.43    -0.572 OA
ENDBRANCH  40  41
ENDBRANCH  39  40
ENDBRANCH  12  39
ENDBRANCH   7   8
ENDBRANCH   4   7
BRANCH   3  45
HETATM   45  O3  IDS C   2      31.972  75.306  15.871  1.00 39.65    -0.390 OA
ATOM     46  H3  IDS C   2      31.481  75.993  15.436  1.00  0.00     0.210 HD
ENDBRANCH   3  45
BRANCH   5  47
HETATM   47  C6  IDS C   2      31.712  70.428  15.010  1.00 36.10     0.206 C 
HETATM   48  O6A IDS C   2      31.206  70.033  16.084  1.00 32.44    -0.646 OA
HETATM   49  O6B IDS C   2      32.351  69.691  14.223  1.00 33.44    -0.646 OA
ENDBRANCH   5  47
BRANCH   2  50
HETATM   50  O2  IDS C   2      31.512  75.712  13.149  1.00 43.59    -0.244 OA
BRANCH  50  51
HETATM   51  S   IDS C   2      30.316  76.767  13.210  1.00 44.11     0.252 S 
HETATM   52  O1S IDS C   2      29.062  75.987  13.486  1.00 44.48    -0.572 OA
HETATM   53  O2S IDS C   2      30.271  77.449  11.900  1.00 44.29    -0.572 OA
HETATM   54  O3S IDS C   2      30.624  77.692  14.287  1.00 44.74    -0.572 OA
ENDBRANCH  50  51
ENDBRANCH   2  50
BRANCH   1  55
HETATM   55  O4  SGN C   1      30.510  73.048  11.948  1.00 44.73    -0.348 OA
BRANCH  55  56
HETATM   56  C4  SGN C   1      30.629  72.109  10.856  1.00 48.25     0.186 C 
HETATM   57  C3  SGN C   1      29.656  70.943  11.066  1.00 48.43     0.178 C 
HETATM   58  C2  SGN C   1      29.662  70.027   9.843  1.00 48.58     0.181 C 
HETATM   59  C1  SGN C   1      29.406  70.809   8.555  1.00 50.40     0.283 C 
HETATM   60  O5  SGN C   1      30.353  71.876   8.430  1.00 50.82    -0.349 OA
HETATM   61  C5  SGN C   1      30.298  72.814   9.530  1.00 51.58     0.181 C 
BRANCH  57  62
HETATM   62  O3  SGN C   1      30.035  70.197  12.212  1.00 46.09    -0.391 OA
ATOM     63  H3  SGN C   1      29.289  69.695  12.520  1.00  0.00     0.210 HD
ENDBRANCH  57  62
BRANCH  58  64
HETATM   64  N2  SGN C   1      28.666  68.985   9.986  1.00 48.56    -0.289 N 
ATOM     65  H2  SGN C   1      27.666  69.181  10.027  1.00  0.00     0.175 HD
BRANCH  64  66
HETATM   66  S1  SGN C   1      29.282  67.453  10.078  1.00 47.67     0.205 S 
HETATM   67  O1S SGN C   1      30.249  67.316   8.966  1.00 47.59    -0.578 OA
HETATM   68  O2S SGN C   1      28.129  66.559   9.931  1.00 48.55    -0.578 OA
HETATM   69  O3S SGN C   1      29.927  67.334  11.404  1.00 47.08    -0.578 OA
ENDBRANCH  64  66
ENDBRANCH  58  64
BRANCH  59  70
HETATM   70  O1  SGN C   1      28.129  71.349   8.578  1.00 51.36    -0.369 OA
ATOM     71  H1  SGN C   1      28.014  71.874   9.361  1.00  0.00     0.212 HD
ENDBRANCH  59  70
BRANCH  61  72
HETATM   72  C6  SGN C   1      31.267  73.922   9.201  1.00 55.48     0.227 C 
BRANCH  72  73
HETATM   73  O6  SGN C   1      32.617  73.412   9.250  1.00 61.59    -0.254 OA
BRANCH  73  74
HETATM   74  S2  SGN C   1      33.729  74.478   9.658  1.00 65.98     0.251 S 
HETATM   75  O4S SGN C   1      32.996  75.734  10.136  1.00 65.09    -0.572 OA
HETATM   76  O5S SGN C   1      34.515  74.733   8.465  1.00 65.58    -0.572 OA
HETATM   77  O6S SGN C   1      34.587  73.837  10.793  1.00 65.84    -0.572 OA
ENDBRANCH  73  74
ENDBRANCH  72  73
ENDBRANCH  61  72
ENDBRANCH  55  56
ENDBRANCH   1  55
TORSDOF 27
ENDMDL
MODEL 25
REMARK VINA RESULT:      -6.4     12.997     17.366
REMARK  27 active torsions:
REMARK  status: ('A' for Active; 'I' for Inactive)
REMARK    1  A    between atoms: C1_1  and  O1_2 
REMARK    2  A    between atoms: S1_5  and  N2_7 
REMARK    3  A    between atoms: C2_6  and  N2_7 
REMARK    4  A    between atoms: S2_10  and  O6_22 
REMARK    5  A    between atoms: C3_11  and  O3_12 
REMARK    6  A    between atoms: C4_15  and  O4_16 
REMARK    7  A    between atoms: O4_16  and  C1_24 
REMARK    8  A    between atoms: C5_18  and  C6_21 
REMARK    9  A    between atoms: C6_21  and  O6_22 
REMARK   10  A    between atoms: C2_26  and  O2_27 
REMARK   11  A    between atoms: O2_27  and  S_40 
REMARK   12  A    between atoms: C3_29  and  O3_30 
REMARK   13  A    between atoms: C4_33  and  O4_34 
REMARK   14  A    between atoms: O4_34  and  C1_41 
REMARK   15  A    between atoms: C5_35  and  C6_37 
REMARK   16  A    between atoms: S1_43  and  N2_45 
REMARK   17  A    between atoms: C2_44  and  N2_45 
REMARK   18  A    between atoms: S2_48  and  O6_60 
REMARK   19  A    between atoms: C3_49  and  O3_50 
REMARK   20  A    between atoms: C4_53  and  O4_54 
REMARK   21  A    between atoms: O4_54  and  C1_62 
REMARK   22  A    between atoms: C5_56  and  C6_59 
REMARK   23  A    between atoms: C6_59  and  O6_60 
REMARK   24  A    between atoms: C2_64  and  O2_65 
REMARK   25  A    between atoms: O2_65  and  S_77 
REMARK   26  A    between atoms: C3_67  and  O3_68 
REMARK   27  A    between atoms: C5_72  and  C6_74 
ROOT
HETATM    1  C1  IDS C   2      28.307  87.870  14.294  1.00 40.81     0.294 C 
HETATM    2  C2  IDS C   2      28.288  86.931  15.503  1.00 40.20     0.231 C 
HETATM    3  C3  IDS C   2      28.744  85.528  15.114  1.00 39.01     0.185 C 
HETATM    4  C4  IDS C   2      27.822  84.926  14.035  1.00 37.65     0.195 C 
HETATM    5  C5  IDS C   2      27.072  86.049  13.306  1.00 35.99     0.257 C 
HETATM    6  O5  IDS C   2      27.965  87.165  13.081  1.00 39.00    -0.340 OA
ENDROOT
BRANCH   4   7
HETATM    7  O4  IDS C   2      28.609  84.160  13.089  1.00 35.98    -0.348 OA
BRANCH   7   8
HETATM    8  C1  SGN C   3      28.764  82.797  13.378  1.00 35.40     0.287 C 
HETATM    9  C2  SGN C   3      29.212  82.036  12.117  1.00 33.71     0.182 C 
HETATM   10  C3  SGN C   3      28.080  81.884  11.095  1.00 35.79     0.178 C 
HETATM   11  C4  SGN C   3      26.771  81.414  11.753  1.00 36.62     0.186 C 
HETATM   12  C5  SGN C   3      26.469  82.261  12.982  1.00 39.32     0.181 C 
HETATM   13  O5  SGN C   3      27.579  82.220  13.896  1.00 37.58    -0.349 OA
BRANCH   9  14
HETATM   14  N2  SGN C   3      30.311  82.739  11.493  1.00 29.28    -0.289 N 
ATOM     15  H2  SGN C   3      30.214  83.709  11.193  1.00  0.00     0.175 HD
BRANCH  14  16
HETATM   16  S1  SGN C   3      31.728  81.917  11.285  1.00 27.84     0.205 S 
HETATM   17  O1S SGN C   3      32.215  81.682  12.631  1.00 27.65    -0.578 OA
HETATM   18  O2S SGN C   3      32.606  82.839  10.507  1.00 27.72    -0.578 OA
HETATM   19  O3S SGN C   3      31.460  80.643  10.546  1.00 28.50    -0.578 OA
ENDBRANCH  14  16
ENDBRANCH   9  14
BRANCH  10  20
HETATM   20  O3  SGN C   3      28.475  80.964  10.080  1.00 34.89    -0.391 OA
ATOM     21  H3  SGN C   3      28.117  81.241   9.245  1.00  0.00     0.210 HD
ENDBRANCH  10  20
BRANCH  11  22
HETATM   22  O4  SGN C   3      25.690  81.565  10.816  1.00 37.13    -0.348 OA
BRANCH  22  23
HETATM   23  C1  UAP C   4      25.252  80.393  10.220  1.00 39.64     0.294 C 
HETATM   24  C2  UAP C   4      23.745  80.429  10.041  1.00 38.70     0.228 C 
HETATM   25  C3  UAP C   4      23.252  79.100   9.476  1.00 38.51     0.156 C 
HETATM   26  C4  UAP C   4      24.183  78.503   8.321  1.00 38.14     0.077 C 
HETATM   27  C5  UAP C   4      25.410  79.161   8.158  1.00 38.51     0.228 C 
HETATM   28  O5  UAP C   4      25.869  80.298   8.944  1.00 37.46    -0.343 OA
BRANCH  24  29
HETATM   29  O2  UAP C   4      23.089  80.621  11.336  1.00 40.54    -0.244 OA
BRANCH  29  30
HETATM   30  S   UAP C   4      22.038  81.808  11.560  1.00 40.49     0.252 S 
HETATM   31  O1S UAP C   4      22.702  83.052  11.147  1.00 40.89    -0.572 OA
HETATM   32  O2S UAP C   4      21.709  81.818  12.993  1.00 37.88    -0.572 OA
HETATM   33  O3S UAP C   4      20.863  81.508  10.727  1.00 37.47    -0.572 OA
ENDBRANCH  29  30
ENDBRANCH  24  29
BRANCH  25  34
HETATM   34  O3  UAP C   4      21.936  79.270   8.976  1.00 38.58    -0.393 OA
ATOM     35  H3  UAP C   4      21.327  79.278   9.705  1.00  0.00     0.210 HD
ENDBRANCH  25  34
BRANCH  27  36
HETATM   36  C6  UAP C   4      26.392  78.775   7.107  1.00 37.96     0.203 C 
HETATM   37  O6A UAP C   4      26.285  77.646   6.587  1.00 40.05    -0.646 OA
HETATM   38  O6B UAP C   4      27.281  79.597   6.797  1.00 36.71    -0.646 OA
ENDBRANCH  27  36
ENDBRANCH  22  23
ENDBRANCH  11  22
BRANCH  12  39
HETATM   39  C6  SGN C   3      25.250  81.827  13.747  1.00 42.65     0.227 C 
BRANCH  39  40
HETATM   40  O6  SGN C   3      25.747  81.155  14.925  1.00 51.09    -0.254 OA
BRANCH  40  41
HETATM   41  S2  SGN C   3      25.530  79.575  14.984  1.00 54.80     0.251 S 
HETATM   42  O4S SGN C   3      26.816  78.967  15.371  1.00 54.99    -0.572 OA
HETATM   43  O5S SGN C   3      25.105  79.152  13.617  1.00 53.99    -0.572 OA
HETATM   44  O6S SGN C   3      24.495  79.328  15.979  1.00 55.43    -0.572 OA
ENDBRANCH  40  41
ENDBRANCH  39  40
ENDBRANCH  12  39
ENDBRANCH   7   8
ENDBRANCH   4   7
BRANCH   3  45
HETATM   45  O3  IDS C   2      28.747  84.694  16.266  1.00 39.65    -0.390 OA
ATOM     46  H3  IDS C   2      29.636  84.597  16.584  1.00  0.00     0.210 HD
ENDBRANCH   3  45
BRANCH   5  47
HETATM   47  C6  IDS C   2      26.470  85.654  11.964  1.00 36.10     0.206 C 
HETATM   48  O6A IDS C   2      27.171  85.821  10.942  1.00 32.44    -0.646 OA
HETATM   49  O6B IDS C   2      25.313  85.169  11.950  1.00 33.44    -0.646 OA
ENDBRANCH   5  47
BRANCH   2  50
HETATM   50  O2  IDS C   2      29.190  87.436  16.531  1.00 43.59    -0.244 OA
BRANCH  50  51
HETATM   51  S   IDS C   2      28.617  87.796  17.976  1.00 44.11     0.252 S 
HETATM   52  O1S IDS C   2      27.152  88.085  17.802  1.00 44.48    -0.572 OA
HETATM   53  O2S IDS C   2      29.364  88.977  18.457  1.00 44.29    -0.572 OA
HETATM   54  O3S IDS C   2      28.842  86.637  18.820  1.00 44.74    -0.572 OA
ENDBRANCH  50  51
ENDBRANCH   2  50
BRANCH   1  55
HETATM   55  O4  SGN C   1      27.387  88.891  14.487  1.00 44.73    -0.348 OA
BRANCH  55  56
HETATM   56  C4  SGN C   1      27.082  89.740  13.358  1.00 48.25     0.186 C 
HETATM   57  C3  SGN C   1      25.563  89.906  13.230  1.00 48.43     0.178 C 
HETATM   58  C2  SGN C   1      25.237  90.923  12.138  1.00 48.58     0.181 C 
HETATM   59  C1  SGN C   1      25.976  92.242  12.360  1.00 50.40     0.283 C 
HETATM   60  O5  SGN C   1      27.385  92.005  12.467  1.00 50.82    -0.349 OA
HETATM   61  C5  SGN C   1      27.728  91.121  13.559  1.00 51.58     0.181 C 
BRANCH  57  62
HETATM   62  O3  SGN C   1      24.966  88.661  12.903  1.00 46.09    -0.391 OA
ATOM     63  H3  SGN C   1      25.216  88.013  13.553  1.00  0.00     0.210 HD
ENDBRANCH  57  62
BRANCH  58  64
HETATM   64  N2  SGN C   1      23.810  91.168  12.084  1.00 48.56    -0.289 N 
ATOM     65  H2  SGN C   1      23.297  91.602  12.851  1.00  0.00     0.175 HD
BRANCH  64  66
HETATM   66  S1  SGN C   1      23.082  90.687  10.679  1.00 47.67     0.205 S 
HETATM   67  O1S SGN C   1      22.834  89.234  10.804  1.00 47.59    -0.578 OA
HETATM   68  O2S SGN C   1      24.041  91.002   9.615  1.00 48.55    -0.578 OA
HETATM   69  O3S SGN C   1      21.830  91.466  10.563  1.00 47.08    -0.578 OA
ENDBRANCH  64  66
ENDBRANCH  58  64
BRANCH  59  70
HETATM   70  O1  SGN C   1      25.536  92.838  13.532  1.00 51.36    -0.369 OA
ATOM     71  H1  SGN C   1      25.041  92.211  14.047  1.00  0.00     0.212 HD
ENDBRANCH  59  70
BRANCH  61  72
HETATM   72  C6  SGN C   1      29.234  91.057  13.606  1.00 55.48     0.227 C 
BRANCH  72  73
HETATM   73  O6  SGN C   1      29.788  92.166  12.864  1.00 61.59    -0.254 OA
BRANCH  73  74
HETATM   74  S2  SGN C   1      31.317  92.490  13.172  1.00 65.98     0.251 S 
HETATM   75  O4S SGN C   1      31.434  94.008  13.328  1.00 65.09    -0.572 OA
HETATM   76  O5S SGN C   1      32.080  92.003  12.037  1.00 65.58    -0.572 OA
HETATM   77  O6S SGN C   1      31.690  91.739  14.489  1.00 65.84    -0.572 OA
ENDBRANCH  73  74
ENDBRANCH  72  73
ENDBRANCH  61  72
ENDBRANCH  55  56
ENDBRANCH   1  55
TORSDOF 27
ENDMDL
MODEL 26
REMARK VINA RESULT:      -6.3      3.595     11.314
REMARK  27 active torsions:
REMARK  status: ('A' for Active; 'I' for Inactive)
REMARK    1  A    between atoms: C1_1  and  O1_2 
REMARK    2  A    between atoms: S1_5  and  N2_7 
REMARK    3  A    between atoms: C2_6  and  N2_7 
REMARK    4  A    between atoms: S2_10  and  O6_22 
REMARK    5  A    between atoms: C3_11  and  O3_12 
REMARK    6  A    between atoms: C4_15  and  O4_16 
REMARK    7  A    between atoms: O4_16  and  C1_24 
REMARK    8  A    between atoms: C5_18  and  C6_21 
REMARK    9  A    between atoms: C6_21  and  O6_22 
REMARK   10  A    between atoms: C2_26  and  O2_27 
REMARK   11  A    between atoms: O2_27  and  S_40 
REMARK   12  A    between atoms: C3_29  and  O3_30 
REMARK   13  A    between atoms: C4_33  and  O4_34 
REMARK   14  A    between atoms: O4_34  and  C1_41 
REMARK   15  A    between atoms: C5_35  and  C6_37 
REMARK   16  A    between atoms: S1_43  and  N2_45 
REMARK   17  A    between atoms: C2_44  and  N2_45 
REMARK   18  A    between atoms: S2_48  and  O6_60 
REMARK   19  A    between atoms: C3_49  and  O3_50 
REMARK   20  A    between atoms: C4_53  and  O4_54 
REMARK   21  A    between atoms: O4_54  and  C1_62 
REMARK   22  A    between atoms: C5_56  and  C6_59 
REMARK   23  A    between atoms: C6_59  and  O6_60 
REMARK   24  A    between atoms: C2_64  and  O2_65 
REMARK   25  A    between atoms: O2_65  and  S_77 
REMARK   26  A    between atoms: C3_67  and  O3_68 
REMARK   27  A    between atoms: C5_72  and  C6_74 
ROOT
HETATM    1  C1  IDS C   2      36.201  72.748  19.878  1.00 40.81     0.294 C 
HETATM    2  C2  IDS C   2      35.008  72.246  20.696  1.00 40.20     0.231 C 
HETATM    3  C3  IDS C   2      33.714  72.339  19.892  1.00 39.01     0.185 C 
HETATM    4  C4  IDS C   2      33.424  73.796  19.479  1.00 37.65     0.195 C 
HETATM    5  C5  IDS C   2      34.718  74.618  19.523  1.00 35.99     0.257 C 
HETATM    6  O5  IDS C   2      35.814  73.830  19.001  1.00 39.00    -0.340 OA
ENDROOT
BRANCH   4   7
HETATM    7  O4  IDS C   2      32.863  73.825  18.142  1.00 35.98    -0.348 OA
BRANCH   7   8
HETATM    8  C1  SGN C   3      31.494  73.535  18.042  1.00 35.40     0.287 C 
HETATM    9  C2  SGN C   3      31.042  73.621  16.574  1.00 33.71     0.182 C 
HETATM   10  C3  SGN C   3      30.965  75.068  16.071  1.00 35.79     0.178 C 
HETATM   11  C4  SGN C   3      30.238  75.985  17.070  1.00 36.62     0.186 C 
HETATM   12  C5  SGN C   3      30.798  75.780  18.472  1.00 39.32     0.181 C 
HETATM   13  O5  SGN C   3      30.704  74.394  18.844  1.00 37.58    -0.349 OA
BRANCH   9  14
HETATM   14  N2  SGN C   3      31.967  72.887  15.739  1.00 29.28    -0.289 N 
ATOM     15  H2  SGN C   3      32.959  73.120  15.720  1.00  0.00     0.175 HD
BRANCH  14  16
HETATM   16  S1  SGN C   3      31.358  71.659  14.817  1.00 27.84     0.205 S 
HETATM   17  O1S SGN C   3      31.023  70.619  15.771  1.00 27.65    -0.578 OA
HETATM   18  O2S SGN C   3      32.471  71.266  13.903  1.00 27.72    -0.578 OA
HETATM   19  O3S SGN C   3      30.161  72.148  14.063  1.00 28.50    -0.578 OA
ENDBRANCH  14  16
ENDBRANCH   9  14
BRANCH  10  20
HETATM   20  O3  SGN C   3      30.305  75.099  14.809  1.00 34.89    -0.391 OA
ATOM     21  H3  SGN C   3      30.451  74.277  14.355  1.00  0.00     0.210 HD
ENDBRANCH  10  20
BRANCH  11  22
HETATM   22  O4  SGN C   3      30.447  77.357  16.690  1.00 37.13    -0.348 OA
BRANCH  22  23
HETATM   23  C1  UAP C   4      29.307  78.048  16.311  1.00 39.64     0.294 C 
HETATM   24  C2  UAP C   4      29.432  78.512  14.871  1.00 38.70     0.228 C 
HETATM   25  C3  UAP C   4      28.220  79.356  14.487  1.00 38.51     0.156 C 
HETATM   26  C4  UAP C   4      26.830  78.776  15.025  1.00 38.14     0.077 C 
HETATM   27  C5  UAP C   4      26.951  77.724  15.944  1.00 38.51     0.228 C 
HETATM   28  O5  UAP C   4      28.205  77.157  16.419  1.00 37.46    -0.343 OA
BRANCH  24  29
HETATM   29  O2  UAP C   4      30.617  79.358  14.716  1.00 40.54    -0.244 OA
BRANCH  29  30
HETATM   30  S   UAP C   4      31.699  79.060  13.574  1.00 40.49     0.252 S 
HETATM   31  O1S UAP C   4      32.611  78.036  14.104  1.00 40.89    -0.572 OA
HETATM   32  O2S UAP C   4      32.398  80.326  13.311  1.00 37.88    -0.572 OA
HETATM   33  O3S UAP C   4      30.961  78.581  12.394  1.00 37.47    -0.572 OA
ENDBRANCH  29  30
ENDBRANCH  24  29
BRANCH  25  34
HETATM   34  O3  UAP C   4      28.165  79.467  13.073  1.00 38.58    -0.393 OA
ATOM     35  H3  UAP C   4      28.794  80.120  12.790  1.00  0.00     0.210 HD
ENDBRANCH  25  34
BRANCH  27  36
HETATM   36  C6  UAP C   4      25.768  77.029  16.525  1.00 37.96     0.203 C 
HETATM   37  O6A UAP C   4      24.916  77.717  17.122  1.00 40.05    -0.646 OA
HETATM   38  O6B UAP C   4      25.684  75.790  16.390  1.00 36.71    -0.646 OA
ENDBRANCH  27  36
ENDBRANCH  22  23
ENDBRANCH  11  22
BRANCH  12  39
HETATM   39  C6  SGN C   3      30.095  76.573  19.539  1.00 42.65     0.227 C 
BRANCH  39  40
HETATM   40  O6  SGN C   3      29.646  75.605  20.512  1.00 51.09    -0.254 OA
BRANCH  40  41
HETATM   41  S2  SGN C   3      28.333  75.986  21.336  1.00 54.80     0.251 S 
HETATM   42  O4S SGN C   3      28.770  76.565  22.620  1.00 54.99    -0.572 OA
HETATM   43  O5S SGN C   3      27.569  74.718  21.531  1.00 53.99    -0.572 OA
HETATM   44  O6S SGN C   3      27.595  76.951  20.532  1.00 55.43    -0.572 OA
ENDBRANCH  40  41
ENDBRANCH  39  40
ENDBRANCH  12  39
ENDBRANCH   7   8
ENDBRANCH   4   7
BRANCH   3  45
HETATM   45  O3  IDS C   2      32.637  71.835  20.669  1.00 39.65    -0.390 OA
ATOM     46  H3  IDS C   2      32.913  71.744  21.573  1.00  0.00     0.210 HD
ENDBRANCH   3  45
BRANCH   5  47
HETATM   47  C6  IDS C   2      34.675  75.928  18.747  1.00 36.10     0.206 C 
HETATM   48  O6A IDS C   2      33.938  76.838  19.187  1.00 32.44    -0.646 OA
HETATM   49  O6B IDS C   2      35.387  76.036  17.721  1.00 33.44    -0.646 OA
ENDBRANCH   5  47
BRANCH   2  50
HETATM   50  O2  IDS C   2      35.218  70.852  21.064  1.00 43.59    -0.244 OA
BRANCH  50  51
HETATM   51  S   IDS C   2      34.766  70.341  22.507  1.00 44.11     0.252 S 
HETATM   52  O1S IDS C   2      34.540  71.564  23.349  1.00 44.48    -0.572 OA
HETATM   53  O2S IDS C   2      35.861  69.498  23.031  1.00 44.29    -0.572 OA
HETATM   54  O3S IDS C   2      33.543  69.580  22.320  1.00 44.74    -0.572 OA
ENDBRANCH  50  51
ENDBRANCH   2  50
BRANCH   1  55
HETATM   55  O4  SGN C   1      37.190  73.207  20.735  1.00 44.73    -0.348 OA
BRANCH  55  56
HETATM   56  C4  SGN C   1      38.552  73.197  20.254  1.00 48.25     0.186 C 
HETATM   57  C3  SGN C   1      38.971  74.617  19.853  1.00 48.43     0.178 C 
HETATM   58  C2  SGN C   1      40.455  74.643  19.490  1.00 48.58     0.181 C 
HETATM   59  C1  SGN C   1      41.316  74.047  20.602  1.00 50.40     0.283 C 
HETATM   60  O5  SGN C   1      40.866  72.724  20.918  1.00 50.82    -0.349 OA
HETATM   61  C5  SGN C   1      39.489  72.686  21.361  1.00 51.58     0.181 C 
BRANCH  57  62
HETATM   62  O3  SGN C   1      38.208  75.049  18.737  1.00 46.09    -0.391 OA
ATOM     63  H3  SGN C   1      38.406  74.498  17.989  1.00  0.00     0.210 HD
ENDBRANCH  57  62
BRANCH  58  64
HETATM   64  N2  SGN C   1      40.885  75.999  19.216  1.00 48.56    -0.289 N 
ATOM     65  H2  SGN C   1      41.004  76.698  19.949  1.00  0.00     0.175 HD
BRANCH  64  66
HETATM   66  S1  SGN C   1      41.167  76.322  17.618  1.00 47.67     0.205 S 
HETATM   67  O1S SGN C   1      42.395  77.146  17.561  1.00 47.59    -0.578 OA
HETATM   68  O2S SGN C   1      39.982  77.049  17.152  1.00 48.55    -0.578 OA
HETATM   69  O3S SGN C   1      41.333  75.015  16.945  1.00 47.08    -0.578 OA
ENDBRANCH  64  66
ENDBRANCH  58  64
BRANCH  59  70
HETATM   70  O1  SGN C   1      41.223  74.831  21.742  1.00 51.36    -0.369 OA
ATOM     71  H1  SGN C   1      41.478  74.325  22.504  1.00  0.00     0.212 HD
ENDBRANCH  59  70
BRANCH  61  72
HETATM   72  C6  SGN C   1      39.201  71.258  21.753  1.00 55.48     0.227 C 
BRANCH  72  73
HETATM   73  O6  SGN C   1      40.389  70.664  22.321  1.00 61.59    -0.254 OA
BRANCH  73  74
HETATM   74  S2  SGN C   1      40.503  70.765  23.907  1.00 65.98     0.251 S 
HETATM   75  O4S SGN C   1      40.234  72.223  24.287  1.00 65.09    -0.572 OA
HETATM   76  O5S SGN C   1      41.853  70.357  24.251  1.00 65.58    -0.572 OA
HETATM   77  O6S SGN C   1      39.433  69.799  24.507  1.00 65.84    -0.572 OA
ENDBRANCH  73  74
ENDBRANCH  72  73
ENDBRANCH  61  72
ENDBRANCH  55  56
ENDBRANCH   1  55
TORSDOF 27
ENDMDL
MODEL 27
REMARK VINA RESULT:      -6.2      5.173      8.928
REMARK  27 active torsions:
REMARK  status: ('A' for Active; 'I' for Inactive)
REMARK    1  A    between atoms: C1_1  and  O1_2 
REMARK    2  A    between atoms: S1_5  and  N2_7 
REMARK    3  A    between atoms: C2_6  and  N2_7 
REMARK    4  A    between atoms: S2_10  and  O6_22 
REMARK    5  A    between atoms: C3_11  and  O3_12 
REMARK    6  A    between atoms: C4_15  and  O4_16 
REMARK    7  A    between atoms: O4_16  and  C1_24 
REMARK    8  A    between atoms: C5_18  and  C6_21 
REMARK    9  A    between atoms: C6_21  and  O6_22 
REMARK   10  A    between atoms: C2_26  and  O2_27 
REMARK   11  A    between atoms: O2_27  and  S_40 
REMARK   12  A    between atoms: C3_29  and  O3_30 
REMARK   13  A    between atoms: C4_33  and  O4_34 
REMARK   14  A    between atoms: O4_34  and  C1_41 
REMARK   15  A    between atoms: C5_35  and  C6_37 
REMARK   16  A    between atoms: S1_43  and  N2_45 
REMARK   17  A    between atoms: C2_44  and  N2_45 
REMARK   18  A    between atoms: S2_48  and  O6_60 
REMARK   19  A    between atoms: C3_49  and  O3_50 
REMARK   20  A    between atoms: C4_53  and  O4_54 
REMARK   21  A    between atoms: O4_54  and  C1_62 
REMARK   22  A    between atoms: C5_56  and  C6_59 
REMARK   23  A    between atoms: C6_59  and  O6_60 
REMARK   24  A    between atoms: C2_64  and  O2_65 
REMARK   25  A    between atoms: O2_65  and  S_77 
REMARK   26  A    between atoms: C3_67  and  O3_68 
REMARK   27  A    between atoms: C5_72  and  C6_74 
ROOT
HETATM    1  C1  IDS C   2      31.484  73.164  11.420  1.00 40.81     0.294 C 
HETATM    2  C2  IDS C   2      31.402  74.392  12.330  1.00 40.20     0.231 C 
HETATM    3  C3  IDS C   2      32.401  74.291  13.479  1.00 39.01     0.185 C 
HETATM    4  C4  IDS C   2      32.125  73.044  14.343  1.00 37.65     0.195 C 
HETATM    5  C5  IDS C   2      31.312  72.022  13.538  1.00 35.99     0.257 C 
HETATM    6  O5  IDS C   2      31.800  71.974  12.176  1.00 39.00    -0.340 OA
ENDROOT
BRANCH   4   7
HETATM    7  O4  IDS C   2      33.379  72.455  14.769  1.00 35.98    -0.348 OA
BRANCH   7   8
HETATM    8  C1  SGN C   3      34.002  73.060  15.871  1.00 35.40     0.287 C 
HETATM    9  C2  SGN C   3      35.205  72.216  16.328  1.00 33.71     0.182 C 
HETATM   10  C3  SGN C   3      34.777  70.927  17.038  1.00 35.79     0.178 C 
HETATM   11  C4  SGN C   3      33.681  71.184  18.086  1.00 36.62     0.186 C 
HETATM   12  C5  SGN C   3      32.567  72.030  17.481  1.00 39.32     0.181 C 
HETATM   13  O5  SGN C   3      33.107  73.254  16.952  1.00 37.58    -0.349 OA
BRANCH   9  14
HETATM   14  N2  SGN C   3      36.015  71.869  15.181  1.00 29.28    -0.289 N 
ATOM     15  H2  SGN C   3      35.628  71.334  14.404  1.00  0.00     0.175 HD
BRANCH  14  16
HETATM   16  S1  SGN C   3      37.589  72.371  15.175  1.00 27.84     0.205 S 
HETATM   17  O1S SGN C   3      38.216  71.617  16.244  1.00 27.65    -0.578 OA
HETATM   18  O2S SGN C   3      37.534  73.836  15.457  1.00 27.72    -0.578 OA
HETATM   19  O3S SGN C   3      38.198  72.081  13.839  1.00 28.50    -0.578 OA
ENDBRANCH  14  16
ENDBRANCH   9  14
BRANCH  10  20
HETATM   20  O3  SGN C   3      35.912  70.324  17.655  1.00 34.89    -0.391 OA
ATOM     21  H3  SGN C   3      36.696  70.554  17.169  1.00  0.00     0.210 HD
ENDBRANCH  10  20
BRANCH  11  22
HETATM   22  O4  SGN C   3      33.123  69.926  18.505  1.00 37.13    -0.348 OA
BRANCH  22  23
HETATM   23  C1  UAP C   4      33.409  69.556  19.810  1.00 39.64     0.294 C 
HETATM   24  C2  UAP C   4      34.282  68.314  19.821  1.00 38.70     0.228 C 
HETATM   25  C3  UAP C   4      34.516  67.851  21.257  1.00 38.51     0.156 C 
HETATM   26  C4  UAP C   4      34.804  69.043  22.282  1.00 38.14     0.077 C 
HETATM   27  C5  UAP C   4      34.580  70.328  21.767  1.00 38.51     0.228 C 
HETATM   28  O5  UAP C   4      34.117  70.628  20.419  1.00 37.46    -0.343 OA
BRANCH  24  29
HETATM   29  O2  UAP C   4      33.611  67.221  19.115  1.00 40.54    -0.244 OA
BRANCH  29  30
HETATM   30  S   UAP C   4      34.352  66.416  17.946  1.00 40.49     0.252 S 
HETATM   31  O1S UAP C   4      35.435  65.647  18.576  1.00 40.89    -0.572 OA
HETATM   32  O2S UAP C   4      34.874  67.419  17.006  1.00 37.88    -0.572 OA
HETATM   33  O3S UAP C   4      33.348  65.542  17.320  1.00 37.47    -0.572 OA
ENDBRANCH  29  30
ENDBRANCH  24  29
BRANCH  25  34
HETATM   34  O3  UAP C   4      35.605  66.942  21.277  1.00 38.58    -0.393 OA
ATOM     35  H3  UAP C   4      36.192  67.147  20.559  1.00  0.00     0.210 HD
ENDBRANCH  25  34
BRANCH  27  36
HETATM   36  C6  UAP C   4      34.831  71.563  22.559  1.00 37.96     0.203 C 
HETATM   37  O6A UAP C   4      34.861  72.654  21.956  1.00 40.05    -0.646 OA
HETATM   38  O6B UAP C   4      35.004  71.451  23.791  1.00 36.71    -0.646 OA
ENDBRANCH  27  36
ENDBRANCH  22  23
ENDBRANCH  11  22
BRANCH  12  39
HETATM   39  C6  SGN C   3      31.483  72.409  18.452  1.00 42.65     0.227 C 
BRANCH  39  40
HETATM   40  O6  SGN C   3      31.267  73.824  18.263  1.00 51.09    -0.254 OA
BRANCH  40  41
HETATM   41  S2  SGN C   3      31.084  74.695  19.588  1.00 54.80     0.251 S 
HETATM   42  O4S SGN C   3      30.920  76.100  19.173  1.00 54.99    -0.572 OA
HETATM   43  O5S SGN C   3      32.320  74.499  20.402  1.00 53.99    -0.572 OA
HETATM   44  O6S SGN C   3      29.897  74.190  20.265  1.00 55.43    -0.572 OA
ENDBRANCH  40  41
ENDBRANCH  39  40
ENDBRANCH  12  39
ENDBRANCH   7   8
ENDBRANCH   4   7
BRANCH   3  45
HETATM   45  O3  IDS C   2      32.320  75.461  14.282  1.00 39.65    -0.390 OA
ATOM     46  H3  IDS C   2      32.503  75.238  15.186  1.00  0.00     0.210 HD
ENDBRANCH   3  45
BRANCH   5  47
HETATM   47  C6  IDS C   2      31.333  70.604  14.092  1.00 36.10     0.206 C 
HETATM   48  O6A IDS C   2      31.894  69.721  13.404  1.00 32.44    -0.646 OA
HETATM   49  O6B IDS C   2      30.805  70.392  15.210  1.00 33.44    -0.646 OA
ENDBRANCH   5  47
BRANCH   2  50
HETATM   50  O2  IDS C   2      31.709  75.593  11.563  1.00 43.59    -0.244 OA
BRANCH  50  51
HETATM   51  S   IDS C   2      30.979  76.966  11.923  1.00 44.11     0.252 S 
HETATM   52  O1S IDS C   2      30.429  77.515  10.637  1.00 44.48    -0.572 OA
HETATM   53  O2S IDS C   2      31.999  77.856  12.517  1.00 44.29    -0.572 OA
HETATM   54  O3S IDS C   2      29.925  76.648  12.869  1.00 44.74    -0.572 OA
ENDBRANCH  50  51
ENDBRANCH   2  50
BRANCH   1  55
HETATM   55  O4  SGN C   1      30.264  72.974  10.787  1.00 44.73    -0.348 OA
BRANCH  55  56
HETATM   56  C4  SGN C   1      30.220  72.046   9.681  1.00 48.25     0.186 C 
HETATM   57  C3  SGN C   1      29.331  70.850  10.043  1.00 48.43     0.178 C 
HETATM   58  C2  SGN C   1      29.153  69.942   8.827  1.00 48.58     0.181 C 
HETATM   59  C1  SGN C   1      28.657  70.722   7.611  1.00 50.40     0.283 C 
HETATM   60  O5  SGN C   1      29.538  71.818   7.336  1.00 50.82    -0.349 OA
HETATM   61  C5  SGN C   1      29.646  72.747   8.439  1.00 51.58     0.181 C 
BRANCH  57  62
HETATM   62  O3  SGN C   1      29.922  70.109  11.099  1.00 46.09    -0.391 OA
ATOM     63  H3  SGN C   1      29.248  69.613  11.550  1.00  0.00     0.210 HD
ENDBRANCH  57  62
BRANCH  58  64
HETATM   64  N2  SGN C   1      28.226  68.869   9.128  1.00 48.56    -0.289 N 
ATOM     65  H2  SGN C   1      27.243  69.035   9.341  1.00  0.00     0.175 HD
BRANCH  64  66
HETATM   66  S1  SGN C   1      28.893  67.356   9.097  1.00 47.67     0.205 S 
HETATM   67  O1S SGN C   1      30.161  67.434   9.854  1.00 47.59    -0.578 OA
HETATM   68  O2S SGN C   1      29.105  67.051   7.679  1.00 48.55    -0.578 OA
HETATM   69  O3S SGN C   1      27.912  66.448   9.732  1.00 47.08    -0.578 OA
ENDBRANCH  64  66
ENDBRANCH  58  64
BRANCH  59  70
HETATM   70  O1  SGN C   1      27.388  71.224   7.858  1.00 51.36    -0.369 OA
ATOM     71  H1  SGN C   1      26.950  70.690   8.509  1.00  0.00     0.212 HD
ENDBRANCH  59  70
BRANCH  61  72
HETATM   72  C6  SGN C   1      30.512  73.885   7.961  1.00 55.48     0.227 C 
BRANCH  72  73
HETATM   73  O6  SGN C   1      29.847  75.141   8.219  1.00 61.59    -0.254 OA
BRANCH  73  74
HETATM   74  S2  SGN C   1      29.726  76.113   6.963  1.00 65.98     0.251 S 
HETATM   75  O4S SGN C   1      29.488  75.234   5.733  1.00 65.09    -0.572 OA
HETATM   76  O5S SGN C   1      30.983  76.835   6.876  1.00 65.58    -0.572 OA
HETATM   77  O6S SGN C   1      28.524  77.071   7.236  1.00 65.84    -0.572 OA
ENDBRANCH  73  74
ENDBRANCH  72  73
ENDBRANCH  61  72
ENDBRANCH  55  56
ENDBRANCH   1  55
TORSDOF 27
ENDMDL
MODEL 28
REMARK VINA RESULT:      -6.2      3.164     11.690
REMARK  27 active torsions:
REMARK  status: ('A' for Active; 'I' for Inactive)
REMARK    1  A    between atoms: C1_1  and  O1_2 
REMARK    2  A    between atoms: S1_5  and  N2_7 
REMARK    3  A    between atoms: C2_6  and  N2_7 
REMARK    4  A    between atoms: S2_10  and  O6_22 
REMARK    5  A    between atoms: C3_11  and  O3_12 
REMARK    6  A    between atoms: C4_15  and  O4_16 
REMARK    7  A    between atoms: O4_16  and  C1_24 
REMARK    8  A    between atoms: C5_18  and  C6_21 
REMARK    9  A    between atoms: C6_21  and  O6_22 
REMARK   10  A    between atoms: C2_26  and  O2_27 
REMARK   11  A    between atoms: O2_27  and  S_40 
REMARK   12  A    between atoms: C3_29  and  O3_30 
REMARK   13  A    between atoms: C4_33  and  O4_34 
REMARK   14  A    between atoms: O4_34  and  C1_41 
REMARK   15  A    between atoms: C5_35  and  C6_37 
REMARK   16  A    between atoms: S1_43  and  N2_45 
REMARK   17  A    between atoms: C2_44  and  N2_45 
REMARK   18  A    between atoms: S2_48  and  O6_60 
REMARK   19  A    between atoms: C3_49  and  O3_50 
REMARK   20  A    between atoms: C4_53  and  O4_54 
REMARK   21  A    between atoms: O4_54  and  C1_62 
REMARK   22  A    between atoms: C5_56  and  C6_59 
REMARK   23  A    between atoms: C6_59  and  O6_60 
REMARK   24  A    between atoms: C2_64  and  O2_65 
REMARK   25  A    between atoms: O2_65  and  S_77 
REMARK   26  A    between atoms: C3_67  and  O3_68 
REMARK   27  A    between atoms: C5_72  and  C6_74 
ROOT
HETATM    1  C1  IDS C   2      36.359  71.071  21.273  1.00 40.81     0.294 C 
HETATM    2  C2  IDS C   2      35.068  70.962  22.088  1.00 40.20     0.231 C 
HETATM    3  C3  IDS C   2      33.847  71.268  21.225  1.00 39.01     0.185 C 
HETATM    4  C4  IDS C   2      33.922  72.696  20.648  1.00 37.65     0.195 C 
HETATM    5  C5  IDS C   2      35.375  73.187  20.660  1.00 35.99     0.257 C 
HETATM    6  O5  IDS C   2      36.257  72.107  20.271  1.00 39.00    -0.340 OA
ENDROOT
BRANCH   4   7
HETATM    7  O4  IDS C   2      33.406  72.705  19.293  1.00 35.98    -0.348 OA
BRANCH   7   8
HETATM    8  C1  SGN C   3      32.014  72.596  19.163  1.00 35.40     0.287 C 
HETATM    9  C2  SGN C   3      31.625  72.527  17.676  1.00 33.71     0.182 C 
HETATM   10  C3  SGN C   3      31.775  73.880  16.971  1.00 35.79     0.178 C 
HETATM   11  C4  SGN C   3      31.157  75.026  17.790  1.00 36.62     0.186 C 
HETATM   12  C5  SGN C   3      31.636  74.955  19.235  1.00 39.32     0.181 C 
HETATM   13  O5  SGN C   3      31.331  73.665  19.794  1.00 37.58    -0.349 OA
BRANCH   9  14
HETATM   14  N2  SGN C   3      32.460  71.557  17.002  1.00 29.28    -0.289 N 
ATOM     15  H2  SGN C   3      33.469  71.686  16.935  1.00  0.00     0.175 HD
BRANCH  14  16
HETATM   16  S1  SGN C   3      31.721  70.233  16.347  1.00 27.84     0.205 S 
HETATM   17  O1S SGN C   3      30.798  70.778  15.369  1.00 27.65    -0.578 OA
HETATM   18  O2S SGN C   3      31.027  69.567  17.488  1.00 27.72    -0.578 OA
HETATM   19  O3S SGN C   3      32.753  69.345  15.724  1.00 28.50    -0.578 OA
ENDBRANCH  14  16
ENDBRANCH   9  14
BRANCH  10  20
HETATM   20  O3  SGN C   3      31.166  73.816  15.684  1.00 34.89    -0.391 OA
ATOM     21  H3  SGN C   3      31.560  74.466  15.114  1.00  0.00     0.210 HD
ENDBRANCH  10  20
BRANCH  11  22
HETATM   22  O4  SGN C   3      31.574  76.285  17.232  1.00 37.13    -0.348 OA
BRANCH  22  23
HETATM   23  C1  UAP C   4      30.569  77.032  16.636  1.00 39.64     0.294 C 
HETATM   24  C2  UAP C   4      30.828  77.159  15.145  1.00 38.70     0.228 C 
HETATM   25  C3  UAP C   4      29.776  78.062  14.507  1.00 38.51     0.156 C 
HETATM   26  C4  UAP C   4      28.292  77.807  15.044  1.00 38.14     0.077 C 
HETATM   27  C5  UAP C   4      28.210  76.966  16.164  1.00 38.51     0.228 C 
HETATM   28  O5  UAP C   4      29.341  76.345  16.837  1.00 37.46    -0.343 OA
BRANCH  24  29
HETATM   29  O2  UAP C   4      32.133  77.780  14.913  1.00 40.54    -0.244 OA
BRANCH  29  30
HETATM   30  S   UAP C   4      33.226  77.077  13.977  1.00 40.49     0.252 S 
HETATM   31  O1S UAP C   4      33.282  75.662  14.373  1.00 40.89    -0.572 OA
HETATM   32  O2S UAP C   4      34.503  77.762  14.228  1.00 37.88    -0.572 OA
HETATM   33  O3S UAP C   4      32.775  77.242  12.586  1.00 37.47    -0.572 OA
ENDBRANCH  29  30
ENDBRANCH  24  29
BRANCH  25  34
HETATM   34  O3  UAP C   4      29.803  77.878  13.100  1.00 38.58    -0.393 OA
ATOM     35  H3  UAP C   4      30.701  77.943  12.797  1.00  0.00     0.210 HD
ENDBRANCH  25  34
BRANCH  27  36
HETATM   36  C6  UAP C   4      26.911  76.581  16.781  1.00 37.96     0.203 C 
HETATM   37  O6A UAP C   4      26.271  75.641  16.269  1.00 40.05    -0.646 OA
HETATM   38  O6B UAP C   4      26.520  77.218  17.783  1.00 36.71    -0.646 OA
ENDBRANCH  27  36
ENDBRANCH  22  23
ENDBRANCH  11  22
BRANCH  12  39
HETATM   39  C6  SGN C   3      31.021  75.985  20.141  1.00 42.65     0.227 C 
BRANCH  39  40
HETATM   40  O6  SGN C   3      29.754  75.433  20.558  1.00 51.09    -0.254 OA
BRANCH  40  41
HETATM   41  S2  SGN C   3      28.644  76.480  21.025  1.00 54.80     0.251 S 
HETATM   42  O4S SGN C   3      28.914  77.750  20.326  1.00 54.99    -0.572 OA
HETATM   43  O5S SGN C   3      28.785  76.621  22.505  1.00 53.99    -0.572 OA
HETATM   44  O6S SGN C   3      27.352  75.922  20.649  1.00 55.43    -0.572 OA
ENDBRANCH  40  41
ENDBRANCH  39  40
ENDBRANCH  12  39
ENDBRANCH   7   8
ENDBRANCH   4   7
BRANCH   3  45
HETATM   45  O3  IDS C   2      32.667  71.124  22.005  1.00 39.65    -0.390 OA
ATOM     46  H3  IDS C   2      32.170  70.378  21.692  1.00  0.00     0.210 HD
ENDBRANCH   3  45
BRANCH   5  47
HETATM   47  C6  IDS C   2      35.660  74.373  19.749  1.00 36.10     0.206 C 
HETATM   48  O6A IDS C   2      36.411  74.183  18.766  1.00 32.44    -0.646 OA
HETATM   49  O6B IDS C   2      35.120  75.473  20.016  1.00 33.44    -0.646 OA
ENDBRANCH   5  47
BRANCH   2  50
HETATM   50  O2  IDS C   2      34.930  69.608  22.610  1.00 43.59    -0.244 OA
BRANCH  50  51
HETATM   51  S   IDS C   2      34.907  69.371  24.189  1.00 44.11     0.252 S 
HETATM   52  O1S IDS C   2      36.334  69.422  24.656  1.00 44.48    -0.572 OA
HETATM   53  O2S IDS C   2      34.293  68.046  24.419  1.00 44.29    -0.572 OA
HETATM   54  O3S IDS C   2      34.111  70.440  24.765  1.00 44.74    -0.572 OA
ENDBRANCH  50  51
ENDBRANCH   2  50
BRANCH   1  55
HETATM   55  O4  SGN C   1      37.416  71.376  22.119  1.00 44.73    -0.348 OA
BRANCH  55  56
HETATM   56  C4  SGN C   1      38.694  70.762  21.843  1.00 48.25     0.186 C 
HETATM   57  C3  SGN C   1      39.627  70.943  23.046  1.00 48.43     0.178 C 
HETATM   58  C2  SGN C   1      40.924  70.165  22.825  1.00 48.58     0.181 C 
HETATM   59  C1  SGN C   1      40.649  68.701  22.483  1.00 50.40     0.283 C 
HETATM   60  O5  SGN C   1      39.775  68.615  21.351  1.00 50.82    -0.349 OA
HETATM   61  C5  SGN C   1      38.499  69.261  21.572  1.00 51.58     0.181 C 
BRANCH  57  62
HETATM   62  O3  SGN C   1      39.930  72.318  23.221  1.00 46.09    -0.391 OA
ATOM     63  H3  SGN C   1      40.069  72.719  22.371  1.00  0.00     0.210 HD
ENDBRANCH  57  62
BRANCH  58  64
HETATM   64  N2  SGN C   1      41.765  70.239  24.002  1.00 48.56    -0.289 N 
ATOM     65  H2  SGN C   1      41.410  70.524  24.916  1.00  0.00     0.175 HD
BRANCH  64  66
HETATM   66  S1  SGN C   1      43.346  69.827  23.745  1.00 47.67     0.205 S 
HETATM   67  O1S SGN C   1      44.110  70.326  24.909  1.00 47.59    -0.578 OA
HETATM   68  O2S SGN C   1      43.726  70.496  22.497  1.00 48.55    -0.578 OA
HETATM   69  O3S SGN C   1      43.386  68.352  23.633  1.00 47.08    -0.578 OA
ENDBRANCH  64  66
ENDBRANCH  58  64
BRANCH  59  70
HETATM   70  O1  SGN C   1      40.044  68.070  23.560  1.00 51.36    -0.369 OA
ATOM     71  H1  SGN C   1      39.484  68.683  24.021  1.00  0.00     0.212 HD
ENDBRANCH  59  70
BRANCH  61  72
HETATM   72  C6  SGN C   1      37.663  68.994  20.346  1.00 55.48     0.227 C 
BRANCH  72  73
HETATM   73  O6  SGN C   1      37.734  67.592  20.008  1.00 61.59    -0.254 OA
BRANCH  73  74
HETATM   74  S2  SGN C   1      36.766  66.644  20.847  1.00 65.98     0.251 S 
HETATM   75  O4S SGN C   1      36.886  65.238  20.254  1.00 65.09    -0.572 OA
HETATM   76  O5S SGN C   1      35.426  67.181  20.694  1.00 65.58    -0.572 OA
HETATM   77  O6S SGN C   1      37.246  66.693  22.331  1.00 65.84    -0.572 OA
ENDBRANCH  73  74
ENDBRANCH  72  73
ENDBRANCH  61  72
ENDBRANCH  55  56
ENDBRANCH   1  55
TORSDOF 27
ENDMDL
MODEL 29
REMARK VINA RESULT:      -6.0     14.131     19.626
REMARK  27 active torsions:
REMARK  status: ('A' for Active; 'I' for Inactive)
REMARK    1  A    between atoms: C1_1  and  O1_2 
REMARK    2  A    between atoms: S1_5  and  N2_7 
REMARK    3  A    between atoms: C2_6  and  N2_7 
REMARK    4  A    between atoms: S2_10  and  O6_22 
REMARK    5  A    between atoms: C3_11  and  O3_12 
REMARK    6  A    between atoms: C4_15  and  O4_16 
REMARK    7  A    between atoms: O4_16  and  C1_24 
REMARK    8  A    between atoms: C5_18  and  C6_21 
REMARK    9  A    between atoms: C6_21  and  O6_22 
REMARK   10  A    between atoms: C2_26  and  O2_27 
REMARK   11  A    between atoms: O2_27  and  S_40 
REMARK   12  A    between atoms: C3_29  and  O3_30 
REMARK   13  A    between atoms: C4_33  and  O4_34 
REMARK   14  A    between atoms: O4_34  and  C1_41 
REMARK   15  A    between atoms: C5_35  and  C6_37 
REMARK   16  A    between atoms: S1_43  and  N2_45 
REMARK   17  A    between atoms: C2_44  and  N2_45 
REMARK   18  A    between atoms: S2_48  and  O6_60 
REMARK   19  A    between atoms: C3_49  and  O3_50 
REMARK   20  A    between atoms: C4_53  and  O4_54 
REMARK   21  A    between atoms: O4_54  and  C1_62 
REMARK   22  A    between atoms: C5_56  and  C6_59 
REMARK   23  A    between atoms: C6_59  and  O6_60 
REMARK   24  A    between atoms: C2_64  and  O2_65 
REMARK   25  A    between atoms: O2_65  and  S_77 
REMARK   26  A    between atoms: C3_67  and  O3_68 
REMARK   27  A    between atoms: C5_72  and  C6_74 
ROOT
HETATM    1  C1  IDS C   2      26.496  89.707  12.190  1.00 40.81     0.294 C 
HETATM    2  C2  IDS C   2      26.941  88.548  13.086  1.00 40.20     0.231 C 
HETATM    3  C3  IDS C   2      26.607  87.202  12.447  1.00 39.01     0.185 C 
HETATM    4  C4  IDS C   2      25.090  87.063  12.212  1.00 37.65     0.195 C 
HETATM    5  C5  IDS C   2      24.437  88.450  12.188  1.00 35.99     0.257 C 
HETATM    6  O5  IDS C   2      25.287  89.377  11.472  1.00 39.00    -0.340 OA
ENDROOT
BRANCH   4   7
HETATM    7  O4  IDS C   2      24.848  86.379  10.957  1.00 35.98    -0.348 OA
BRANCH   7   8
HETATM    8  C1  SGN C   3      25.561  85.188  10.757  1.00 35.40     0.287 C 
HETATM    9  C2  SGN C   3      24.973  84.413   9.565  1.00 33.71     0.182 C 
HETATM   10  C3  SGN C   3      23.621  83.770   9.897  1.00 35.79     0.178 C 
HETATM   11  C4  SGN C   3      23.652  83.034  11.247  1.00 36.62     0.186 C 
HETATM   12  C5  SGN C   3      24.261  83.930  12.318  1.00 39.32     0.181 C 
HETATM   13  O5  SGN C   3      25.570  84.368  11.912  1.00 37.58    -0.349 OA
BRANCH   9  14
HETATM   14  N2  SGN C   3      24.799  85.310   8.444  1.00 29.28    -0.289 N 
ATOM     15  H2  SGN C   3      24.207  86.137   8.518  1.00  0.00     0.175 HD
BRANCH  14  16
HETATM   16  S1  SGN C   3      25.591  84.948   7.041  1.00 27.84     0.205 S 
HETATM   17  O1S SGN C   3      25.416  86.123   6.209  1.00 27.65    -0.578 OA
HETATM   18  O2S SGN C   3      24.893  83.746   6.496  1.00 27.72    -0.578 OA
HETATM   19  O3S SGN C   3      27.032  84.671   7.341  1.00 28.50    -0.578 OA
ENDBRANCH  14  16
ENDBRANCH   9  14
BRANCH  10  20
HETATM   20  O3  SGN C   3      23.255  82.868   8.856  1.00 34.89    -0.391 OA
ATOM     21  H3  SGN C   3      23.251  81.980   9.194  1.00  0.00     0.210 HD
ENDBRANCH  10  20
BRANCH  11  22
HETATM   22  O4  SGN C   3      22.306  82.705  11.637  1.00 37.13    -0.348 OA
BRANCH  22  23
HETATM   23  C1  UAP C   4      22.015  81.351  11.680  1.00 39.64     0.294 C 
HETATM   24  C2  UAP C   4      20.742  81.065  10.905  1.00 38.70     0.228 C 
HETATM   25  C3  UAP C   4      20.370  79.591  11.034  1.00 38.51     0.156 C 
HETATM   26  C4  UAP C   4      21.616  78.596  10.924  1.00 38.14     0.077 C 
HETATM   27  C5  UAP C   4      22.871  79.222  10.950  1.00 38.51     0.228 C 
HETATM   28  O5  UAP C   4      23.096  80.656  11.072  1.00 37.46    -0.343 OA
BRANCH  24  29
HETATM   29  O2  UAP C   4      19.632  81.844  11.456  1.00 40.54    -0.244 OA
BRANCH  29  30
HETATM   30  S   UAP C   4      18.707  82.745  10.510  1.00 40.49     0.252 S 
HETATM   31  O1S UAP C   4      19.602  83.447   9.578  1.00 40.89    -0.572 OA
HETATM   32  O2S UAP C   4      17.991  83.684  11.386  1.00 37.88    -0.572 OA
HETATM   33  O3S UAP C   4      17.788  81.834   9.809  1.00 37.47    -0.572 OA
ENDBRANCH  29  30
ENDBRANCH  24  29
BRANCH  25  34
HETATM   34  O3  UAP C   4      19.420  79.265  10.032  1.00 38.58    -0.393 OA
ATOM     35  H3  UAP C   4      19.878  78.949   9.263  1.00  0.00     0.210 HD
ENDBRANCH  25  34
BRANCH  27  36
HETATM   36  C6  UAP C   4      24.147  78.465  10.818  1.00 37.96     0.203 C 
HETATM   37  O6A UAP C   4      24.522  77.772  11.785  1.00 40.05    -0.646 OA
HETATM   38  O6B UAP C   4      24.783  78.561   9.748  1.00 36.71    -0.646 OA
ENDBRANCH  27  36
ENDBRANCH  22  23
ENDBRANCH  11  22
BRANCH  12  39
HETATM   39  C6  SGN C   3      24.413  83.271  13.661  1.00 42.65     0.227 C 
BRANCH  39  40
HETATM   40  O6  SGN C   3      25.743  82.708  13.672  1.00 51.09    -0.254 OA
BRANCH  40  41
HETATM   41  S2  SGN C   3      25.837  81.115  13.671  1.00 54.80     0.251 S 
HETATM   42  O4S SGN C   3      24.501  80.593  14.010  1.00 54.99    -0.572 OA
HETATM   43  O5S SGN C   3      26.854  80.747  14.702  1.00 53.99    -0.572 OA
HETATM   44  O6S SGN C   3      26.248  80.716  12.331  1.00 55.43    -0.572 OA
ENDBRANCH  40  41
ENDBRANCH  39  40
ENDBRANCH  12  39
ENDBRANCH   7   8
ENDBRANCH   4   7
BRANCH   3  45
HETATM   45  O3  IDS C   2      27.064  86.152  13.289  1.00 39.65    -0.390 OA
ATOM     46  H3  IDS C   2      26.409  85.972  13.953  1.00  0.00     0.210 HD
ENDBRANCH   3  45
BRANCH   5  47
HETATM   47  C6  IDS C   2      23.054  88.499  11.553  1.00 36.10     0.206 C 
HETATM   48  O6A IDS C   2      22.874  89.309  10.616  1.00 32.44    -0.646 OA
HETATM   49  O6B IDS C   2      22.171  87.720  11.985  1.00 33.44    -0.646 OA
ENDBRANCH   5  47
BRANCH   2  50
HETATM   50  O2  IDS C   2      28.382  88.611  13.292  1.00 43.59    -0.244 OA
BRANCH  50  51
HETATM   51  S   IDS C   2      28.964  88.679  14.776  1.00 44.11     0.252 S 
HETATM   52  O1S IDS C   2      28.105  87.782  15.622  1.00 44.48    -0.572 OA
HETATM   53  O2S IDS C   2      28.889  90.091  15.207  1.00 44.29    -0.572 OA
HETATM   54  O3S IDS C   2      30.337  88.209  14.712  1.00 44.74    -0.572 OA
ENDBRANCH  50  51
ENDBRANCH   2  50
BRANCH   1  55
HETATM   55  O4  SGN C   1      26.255  90.829  12.971  1.00 44.73    -0.348 OA
BRANCH  55  56
HETATM   56  C4  SGN C   1      26.228  92.112  12.309  1.00 48.25     0.186 C 
HETATM   57  C3  SGN C   1      24.879  92.797  12.558  1.00 48.43     0.178 C 
HETATM   58  C2  SGN C   1      24.899  94.217  11.994  1.00 48.58     0.181 C 
HETATM   59  C1  SGN C   1      26.092  95.014  12.521  1.00 50.40     0.283 C 
HETATM   60  O5  SGN C   1      27.312  94.312  12.249  1.00 50.82    -0.349 OA
HETATM   61  C5  SGN C   1      27.357  93.001  12.857  1.00 51.58     0.181 C 
BRANCH  57  62
HETATM   62  O3  SGN C   1      23.840  92.060  11.935  1.00 46.09    -0.391 OA
ATOM     63  H3  SGN C   1      24.066  91.137  11.934  1.00  0.00     0.210 HD
ENDBRANCH  57  62
BRANCH  58  64
HETATM   64  N2  SGN C   1      23.670  94.909  12.322  1.00 48.56    -0.289 N 
ATOM     65  H2  SGN C   1      23.353  95.045  13.282  1.00  0.00     0.175 HD
BRANCH  64  66
HETATM   66  S1  SGN C   1      22.821  95.461  11.013  1.00 47.67     0.205 S 
HETATM   67  O1S SGN C   1      21.865  96.470  11.521  1.00 47.59    -0.578 OA
HETATM   68  O2S SGN C   1      22.150  94.282  10.458  1.00 48.55    -0.578 OA
HETATM   69  O3S SGN C   1      23.812  96.042  10.081  1.00 47.08    -0.578 OA
ENDBRANCH  64  66
ENDBRANCH  58  64
BRANCH  59  70
HETATM   70  O1  SGN C   1      25.976  95.186  13.892  1.00 51.36    -0.369 OA
ATOM     71  H1  SGN C   1      25.970  94.341  14.325  1.00  0.00     0.212 HD
ENDBRANCH  59  70
BRANCH  61  72
HETATM   72  C6  SGN C   1      28.729  92.441  12.572  1.00 55.48     0.227 C 
BRANCH  72  73
HETATM   73  O6  SGN C   1      29.644  92.853  13.611  1.00 61.59    -0.254 OA
BRANCH  73  74
HETATM   74  S2  SGN C   1      31.185  92.607  13.290  1.00 65.98     0.251 S 
HETATM   75  O4S SGN C   1      31.774  91.830  14.471  1.00 65.09    -0.572 OA
HETATM   76  O5S SGN C   1      31.793  93.918  13.150  1.00 65.58    -0.572 OA
HETATM   77  O6S SGN C   1      31.255  91.789  11.963  1.00 65.84    -0.572 OA
ENDBRANCH  73  74
ENDBRANCH  72  73
ENDBRANCH  61  72
ENDBRANCH  55  56
ENDBRANCH   1  55
TORSDOF 27
ENDMDL
MODEL 30
REMARK VINA RESULT:      -6.0      2.994     11.169
REMARK  27 active torsions:
REMARK  status: ('A' for Active; 'I' for Inactive)
REMARK    1  A    between atoms: C1_1  and  O1_2 
REMARK    2  A    between atoms: S1_5  and  N2_7 
REMARK    3  A    between atoms: C2_6  and  N2_7 
REMARK    4  A    between atoms: S2_10  and  O6_22 
REMARK    5  A    between atoms: C3_11  and  O3_12 
REMARK    6  A    between atoms: C4_15  and  O4_16 
REMARK    7  A    between atoms: O4_16  and  C1_24 
REMARK    8  A    between atoms: C5_18  and  C6_21 
REMARK    9  A    between atoms: C6_21  and  O6_22 
REMARK   10  A    between atoms: C2_26  and  O2_27 
REMARK   11  A    between atoms: O2_27  and  S_40 
REMARK   12  A    between atoms: C3_29  and  O3_30 
REMARK   13  A    between atoms: C4_33  and  O4_34 
REMARK   14  A    between atoms: O4_34  and  C1_41 
REMARK   15  A    between atoms: C5_35  and  C6_37 
REMARK   16  A    between atoms: S1_43  and  N2_45 
REMARK   17  A    between atoms: C2_44  and  N2_45 
REMARK   18  A    between atoms: S2_48  and  O6_60 
REMARK   19  A    between atoms: C3_49  and  O3_50 
REMARK   20  A    between atoms: C4_53  and  O4_54 
REMARK   21  A    between atoms: O4_54  and  C1_62 
REMARK   22  A    between atoms: C5_56  and  C6_59 
REMARK   23  A    between atoms: C6_59  and  O6_60 
REMARK   24  A    between atoms: C2_64  and  O2_65 
REMARK   25  A    between atoms: O2_65  and  S_77 
REMARK   26  A    between atoms: C3_67  and  O3_68 
REMARK   27  A    between atoms: C5_72  and  C6_74 
ROOT
HETATM    1  C1  IDS C   2      35.227  68.148  20.550  1.00 40.81     0.294 C 
HETATM    2  C2  IDS C   2      34.292  67.224  19.767  1.00 40.20     0.231 C 
HETATM    3  C3  IDS C   2      33.724  67.932  18.540  1.00 39.01     0.185 C 
HETATM    4  C4  IDS C   2      32.920  69.183  18.945  1.00 37.65     0.195 C 
HETATM    5  C5  IDS C   2      33.345  69.644  20.346  1.00 35.99     0.257 C 
HETATM    6  O5  IDS C   2      34.781  69.521  20.484  1.00 39.00    -0.340 OA
ENDROOT
BRANCH   4   7
HETATM    7  O4  IDS C   2      33.146  70.245  17.984  1.00 35.98    -0.348 OA
BRANCH   7   8
HETATM    8  C1  SGN C   3      32.072  70.545  17.134  1.00 35.40     0.287 C 
HETATM    9  C2  SGN C   3      32.586  70.828  15.711  1.00 33.71     0.182 C 
HETATM   10  C3  SGN C   3      33.295  72.184  15.607  1.00 35.79     0.178 C 
HETATM   11  C4  SGN C   3      32.488  73.307  16.282  1.00 36.62     0.186 C 
HETATM   12  C5  SGN C   3      32.052  72.872  17.676  1.00 39.32     0.181 C 
HETATM   13  O5  SGN C   3      31.309  71.643  17.601  1.00 37.58    -0.349 OA
BRANCH   9  14
HETATM   14  N2  SGN C   3      33.511  69.788  15.316  1.00 29.28    -0.289 N 
ATOM     15  H2  SGN C   3      34.097  69.314  16.004  1.00  0.00     0.175 HD
BRANCH  14  16
HETATM   16  S1  SGN C   3      33.585  69.397  13.713  1.00 27.84     0.205 S 
HETATM   17  O1S SGN C   3      32.283  69.762  13.189  1.00 27.65    -0.578 OA
HETATM   18  O2S SGN C   3      33.828  67.924  13.680  1.00 27.72    -0.578 OA
HETATM   19  O3S SGN C   3      34.696  70.162  13.065  1.00 28.50    -0.578 OA
ENDBRANCH  14  16
ENDBRANCH   9  14
BRANCH  10  20
HETATM   20  O3  SGN C   3      33.518  72.499  14.235  1.00 34.89    -0.391 OA
ATOM     21  H3  SGN C   3      33.053  71.877  13.687  1.00  0.00     0.210 HD
ENDBRANCH  10  20
BRANCH  11  22
HETATM   22  O4  SGN C   3      33.318  74.475  16.406  1.00 37.13    -0.348 OA
BRANCH  22  23
HETATM   23  C1  UAP C   4      32.944  75.555  15.621  1.00 39.64     0.294 C 
HETATM   24  C2  UAP C   4      34.025  75.858  14.600  1.00 38.70     0.228 C 
HETATM   25  C3  UAP C   4      33.656  77.105  13.801  1.00 38.51     0.156 C 
HETATM   26  C4  UAP C   4      32.115  77.173  13.382  1.00 38.14     0.077 C 
HETATM   27  C5  UAP C   4      31.298  76.209  13.990  1.00 38.51     0.228 C 
HETATM   28  O5  UAP C   4      31.747  75.201  14.940  1.00 37.46    -0.343 OA
BRANCH  24  29
HETATM   29  O2  UAP C   4      35.293  76.134  15.277  1.00 40.54    -0.244 OA
BRANCH  29  30
HETATM   30  S   UAP C   4      36.625  75.333  14.892  1.00 40.49     0.252 S 
HETATM   31  O1S UAP C   4      37.123  75.909  13.634  1.00 40.89    -0.572 OA
HETATM   32  O2S UAP C   4      36.240  73.924  14.728  1.00 37.88    -0.572 OA
HETATM   33  O3S UAP C   4      37.577  75.521  15.998  1.00 37.47    -0.572 OA
ENDBRANCH  29  30
ENDBRANCH  24  29
BRANCH  25  34
HETATM   34  O3  UAP C   4      34.462  77.162  12.635  1.00 38.58    -0.393 OA
ATOM     35  H3  UAP C   4      33.952  76.862  11.892  1.00  0.00     0.210 HD
ENDBRANCH  25  34
BRANCH  27  36
HETATM   36  C6  UAP C   4      29.844  76.089  13.694  1.00 37.96     0.203 C 
HETATM   37  O6A UAP C   4      29.142  77.117  13.766  1.00 40.05    -0.646 OA
HETATM   38  O6B UAP C   4      29.393  74.965  13.389  1.00 36.71    -0.646 OA
ENDBRANCH  27  36
ENDBRANCH  22  23
ENDBRANCH  11  22
BRANCH  12  39
HETATM   39  C6  SGN C   3      31.184  73.871  18.390  1.00 42.65     0.227 C 
BRANCH  39  40
HETATM   40  O6  SGN C   3      31.924  74.261  19.567  1.00 51.09    -0.254 OA
BRANCH  40  41
HETATM   41  S2  SGN C   3      31.779  75.783  20.022  1.00 54.80     0.251 S 
HETATM   42  O4S SGN C   3      32.710  75.999  21.145  1.00 54.99    -0.572 OA
HETATM   43  O5S SGN C   3      30.357  75.971  20.438  1.00 53.99    -0.572 OA
HETATM   44  O6S SGN C   3      32.124  76.604  18.869  1.00 55.43    -0.572 OA
ENDBRANCH  40  41
ENDBRANCH  39  40
ENDBRANCH  12  39
ENDBRANCH   7   8
ENDBRANCH   4   7
BRANCH   3  45
HETATM   45  O3  IDS C   2      32.889  67.035  17.820  1.00 39.65    -0.390 OA
ATOM     46  H3  IDS C   2      31.982  67.186  18.058  1.00  0.00     0.210 HD
ENDBRANCH   3  45
BRANCH   5  47
HETATM   47  C6  IDS C   2      32.963  71.076  20.695  1.00 36.10     0.206 C 
HETATM   48  O6A IDS C   2      31.756  71.316  20.917  1.00 32.44    -0.646 OA
HETATM   49  O6B IDS C   2      33.874  71.936  20.759  1.00 33.44    -0.646 OA
ENDBRANCH   5  47
BRANCH   2  50
HETATM   50  O2  IDS C   2      35.027  66.049  19.317  1.00 43.59    -0.244 OA
BRANCH  50  51
HETATM   51  S   IDS C   2      34.513  64.594  19.724  1.00 44.11     0.252 S 
HETATM   52  O1S IDS C   2      33.617  64.123  18.614  1.00 44.48    -0.572 OA
HETATM   53  O2S IDS C   2      33.788  64.733  21.005  1.00 44.29    -0.572 OA
HETATM   54  O3S IDS C   2      35.690  63.755  19.861  1.00 44.74    -0.572 OA
ENDBRANCH  50  51
ENDBRANCH   2  50
BRANCH   1  55
HETATM   55  O4  SGN C   1      35.257  67.757  21.881  1.00 44.73    -0.348 OA
BRANCH  55  56
HETATM   56  C4  SGN C   1      36.541  67.722  22.541  1.00 48.25     0.186 C 
HETATM   57  C3  SGN C   1      36.988  69.149  22.882  1.00 48.43     0.178 C 
HETATM   58  C2  SGN C   1      38.268  69.112  23.717  1.00 48.58     0.181 C 
HETATM   59  C1  SGN C   1      38.113  68.214  24.943  1.00 50.40     0.283 C 
HETATM   60  O5  SGN C   1      37.697  66.903  24.544  1.00 50.82    -0.349 OA
HETATM   61  C5  SGN C   1      36.435  66.900  23.837  1.00 51.58     0.181 C 
BRANCH  57  62
HETATM   62  O3  SGN C   1      37.227  69.879  21.689  1.00 46.09    -0.391 OA
ATOM     63  H3  SGN C   1      37.395  69.271  20.978  1.00  0.00     0.210 HD
ENDBRANCH  57  62
BRANCH  58  64
HETATM   64  N2  SGN C   1      38.636  70.449  24.136  1.00 48.56    -0.289 N 
ATOM     65  H2  SGN C   1      38.052  71.014  24.753  1.00  0.00     0.175 HD
BRANCH  64  66
HETATM   66  S1  SGN C   1      40.081  70.985  23.533  1.00 47.67     0.205 S 
HETATM   67  O1S SGN C   1      41.079  69.933  23.824  1.00 47.59    -0.578 OA
HETATM   68  O2S SGN C   1      40.361  72.236  24.246  1.00 48.55    -0.578 OA
HETATM   69  O3S SGN C   1      39.883  71.191  22.082  1.00 47.08    -0.578 OA
ENDBRANCH  64  66
ENDBRANCH  58  64
BRANCH  59  70
HETATM   70  O1  SGN C   1      37.157  68.742  25.797  1.00 51.36    -0.369 OA
ATOM     71  H1  SGN C   1      36.288  68.583  25.447  1.00  0.00     0.212 HD
ENDBRANCH  59  70
BRANCH  61  72
HETATM   72  C6  SGN C   1      36.086  65.455  23.583  1.00 55.48     0.227 C 
BRANCH  72  73
HETATM   73  O6  SGN C   1      35.400  64.914  24.733  1.00 61.59    -0.254 OA
BRANCH  73  74
HETATM   74  S2  SGN C   1      35.652  63.364  25.004  1.00 65.98     0.251 S 
HETATM   75  O4S SGN C   1      37.143  63.196  25.309  1.00 65.09    -0.572 OA
HETATM   76  O5S SGN C   1      35.267  62.665  23.792  1.00 65.58    -0.572 OA
HETATM   77  O6S SGN C   1      34.759  62.958  26.218  1.00 65.84    -0.572 OA
ENDBRANCH  73  74
ENDBRANCH  72  73
ENDBRANCH  61  72
ENDBRANCH  55  56
ENDBRANCH   1  55
TORSDOF 27
ENDMDL
MODEL 31
REMARK VINA RESULT:      -5.9     12.040     17.128
REMARK  27 active torsions:
REMARK  status: ('A' for Active; 'I' for Inactive)
REMARK    1  A    between atoms: C1_1  and  O1_2 
REMARK    2  A    between atoms: S1_5  and  N2_7 
REMARK    3  A    between atoms: C2_6  and  N2_7 
REMARK    4  A    between atoms: S2_10  and  O6_22 
REMARK    5  A    between atoms: C3_11  and  O3_12 
REMARK    6  A    between atoms: C4_15  and  O4_16 
REMARK    7  A    between atoms: O4_16  and  C1_24 
REMARK    8  A    between atoms: C5_18  and  C6_21 
REMARK    9  A    between atoms: C6_21  and  O6_22 
REMARK   10  A    between atoms: C2_26  and  O2_27 
REMARK   11  A    between atoms: O2_27  and  S_40 
REMARK   12  A    between atoms: C3_29  and  O3_30 
REMARK   13  A    between atoms: C4_33  and  O4_34 
REMARK   14  A    between atoms: O4_34  and  C1_41 
REMARK   15  A    between atoms: C5_35  and  C6_37 
REMARK   16  A    between atoms: S1_43  and  N2_45 
REMARK   17  A    between atoms: C2_44  and  N2_45 
REMARK   18  A    between atoms: S2_48  and  O6_60 
REMARK   19  A    between atoms: C3_49  and  O3_50 
REMARK   20  A    between atoms: C4_53  and  O4_54 
REMARK   21  A    between atoms: O4_54  and  C1_62 
REMARK   22  A    between atoms: C5_56  and  C6_59 
REMARK   23  A    between atoms: C6_59  and  O6_60 
REMARK   24  A    between atoms: C2_64  and  O2_65 
REMARK   25  A    between atoms: O2_65  and  S_77 
REMARK   26  A    between atoms: C3_67  and  O3_68 
REMARK   27  A    between atoms: C5_72  and  C6_74 
ROOT
HETATM    1  C1  IDS C   2      28.285  87.603  14.286  1.00 40.81     0.294 C 
HETATM    2  C2  IDS C   2      28.324  86.784  15.579  1.00 40.20     0.231 C 
HETATM    3  C3  IDS C   2      28.867  85.381  15.324  1.00 39.01     0.185 C 
HETATM    4  C4  IDS C   2      27.986  84.623  14.311  1.00 37.65     0.195 C 
HETATM    5  C5  IDS C   2      27.168  85.622  13.482  1.00 35.99     0.257 C 
HETATM    6  O5  IDS C   2      27.990  86.765  13.147  1.00 39.00    -0.340 OA
ENDROOT
BRANCH   4   7
HETATM    7  O4  IDS C   2      28.820  83.820  13.439  1.00 35.98    -0.348 OA
BRANCH   7   8
HETATM    8  C1  SGN C   3      29.344  82.645  13.996  1.00 35.40     0.287 C 
HETATM    9  C2  SGN C   3      30.516  82.130  13.142  1.00 33.71     0.182 C 
HETATM   10  C3  SGN C   3      30.047  81.518  11.817  1.00 35.79     0.178 C 
HETATM   11  C4  SGN C   3      28.867  80.552  12.017  1.00 36.62     0.186 C 
HETATM   12  C5  SGN C   3      27.796  81.206  12.881  1.00 39.32     0.181 C 
HETATM   13  O5  SGN C   3      28.362  81.633  14.132  1.00 37.58    -0.349 OA
BRANCH   9  14
HETATM   14  N2  SGN C   3      31.421  83.222  12.856  1.00 29.28    -0.289 N 
ATOM     15  H2  SGN C   3      31.144  83.990  12.245  1.00  0.00     0.175 HD
BRANCH  14  16
HETATM   16  S1  SGN C   3      32.917  83.180  13.554  1.00 27.84     0.205 S 
HETATM   17  O1S SGN C   3      33.670  84.211  12.864  1.00 27.65    -0.578 OA
HETATM   18  O2S SGN C   3      33.437  81.807  13.284  1.00 27.72    -0.578 OA
HETATM   19  O3S SGN C   3      32.790  83.453  15.020  1.00 28.50    -0.578 OA
ENDBRANCH  14  16
ENDBRANCH   9  14
BRANCH  10  20
HETATM   20  O3  SGN C   3      31.135  80.839  11.196  1.00 34.89    -0.391 OA
ATOM     21  H3  SGN C   3      31.006  79.900  11.270  1.00  0.00     0.210 HD
ENDBRANCH  10  20
BRANCH  11  22
HETATM   22  O4  SGN C   3      28.292  80.238  10.736  1.00 37.13    -0.348 OA
BRANCH  22  23
HETATM   23  C1  UAP C   4      27.068  80.833  10.472  1.00 39.64     0.294 C 
HETATM   24  C2  UAP C   4      27.182  81.750   9.268  1.00 38.70     0.228 C 
HETATM   25  C3  UAP C   4      25.861  82.479   9.038  1.00 38.51     0.156 C 
HETATM   26  C4  UAP C   4      24.571  81.553   9.222  1.00 38.14     0.077 C 
HETATM   27  C5  UAP C   4      24.828  80.292   9.778  1.00 38.51     0.228 C 
HETATM   28  O5  UAP C   4      26.137  79.799  10.183  1.00 37.46    -0.343 OA
BRANCH  24  29
HETATM   29  O2  UAP C   4      28.206  82.769   9.506  1.00 40.54    -0.244 OA
BRANCH  29  30
HETATM   30  S   UAP C   4      29.288  83.130   8.383  1.00 40.49     0.252 S 
HETATM   31  O1S UAP C   4      29.502  84.583   8.447  1.00 40.89    -0.572 OA
HETATM   32  O2S UAP C   4      28.712  82.723   7.093  1.00 37.88    -0.572 OA
HETATM   33  O3S UAP C   4      30.511  82.379   8.703  1.00 37.47    -0.572 OA
ENDBRANCH  29  30
ENDBRANCH  24  29
BRANCH  25  34
HETATM   34  O3  UAP C   4      25.860  83.030   7.730  1.00 38.58    -0.393 OA
ATOM     35  H3  UAP C   4      26.674  83.500   7.592  1.00  0.00     0.210 HD
ENDBRANCH  25  34
BRANCH  27  36
HETATM   36  C6  UAP C   4      23.758  79.277   9.988  1.00 37.96     0.203 C 
HETATM   37  O6A UAP C   4      22.584  79.677  10.116  1.00 40.05    -0.646 OA
HETATM   38  O6B UAP C   4      24.086  78.072  10.030  1.00 36.71    -0.646 OA
ENDBRANCH  27  36
ENDBRANCH  22  23
ENDBRANCH  11  22
BRANCH  12  39
HETATM   39  C6  SGN C   3      26.632  80.310  13.205  1.00 42.65     0.227 C 
BRANCH  39  40
HETATM   40  O6  SGN C   3      27.210  79.046  13.596  1.00 51.09    -0.254 OA
BRANCH  40  41
HETATM   41  S2  SGN C   3      26.914  78.562  15.088  1.00 54.80     0.251 S 
HETATM   42  O4S SGN C   3      28.091  78.907  15.905  1.00 54.99    -0.572 OA
HETATM   43  O5S SGN C   3      26.697  77.086  15.023  1.00 53.99    -0.572 OA
HETATM   44  O6S SGN C   3      25.721  79.271  15.532  1.00 55.43    -0.572 OA
ENDBRANCH  40  41
ENDBRANCH  39  40
ENDBRANCH  12  39
ENDBRANCH   7   8
ENDBRANCH   4   7
BRANCH   3  45
HETATM   45  O3  IDS C   2      28.920  84.663  16.549  1.00 39.65    -0.390 OA
ATOM     46  H3  IDS C   2      28.075  84.709  16.980  1.00  0.00     0.210 HD
ENDBRANCH   3  45
BRANCH   5  47
HETATM   47  C6  IDS C   2      26.593  85.064  12.187  1.00 36.10     0.206 C 
HETATM   48  O6A IDS C   2      27.075  85.483  11.111  1.00 32.44    -0.646 OA
HETATM   49  O6B IDS C   2      25.681  84.206  12.261  1.00 33.44    -0.646 OA
ENDBRANCH   5  47
BRANCH   2  50
HETATM   50  O2  IDS C   2      29.191  87.440  16.550  1.00 43.59    -0.244 OA
BRANCH  50  51
HETATM   51  S   IDS C   2      28.610  87.843  17.981  1.00 44.11     0.252 S 
HETATM   52  O1S IDS C   2      28.905  86.697  18.907  1.00 44.48    -0.572 OA
HETATM   53  O2S IDS C   2      27.159  88.064  17.813  1.00 44.29    -0.572 OA
HETATM   54  O3S IDS C   2      29.296  89.056  18.387  1.00 44.74    -0.572 OA
ENDBRANCH  50  51
ENDBRANCH   2  50
BRANCH   1  55
HETATM   55  O4  SGN C   1      27.303  88.578  14.385  1.00 44.73    -0.348 OA
BRANCH  55  56
HETATM   56  C4  SGN C   1      27.087  89.429  13.238  1.00 48.25     0.186 C 
HETATM   57  C3  SGN C   1      25.590  89.491  12.912  1.00 48.43     0.178 C 
HETATM   58  C2  SGN C   1      25.335  90.508  11.801  1.00 48.58     0.181 C 
HETATM   59  C1  SGN C   1      25.940  91.870  12.138  1.00 50.40     0.283 C 
HETATM   60  O5  SGN C   1      27.337  91.731  12.428  1.00 50.82    -0.349 OA
HETATM   61  C5  SGN C   1      27.598  90.848  13.543  1.00 51.58     0.181 C 
BRANCH  57  62
HETATM   62  O3  SGN C   1      25.133  88.215  12.492  1.00 46.09    -0.391 OA
ATOM     63  H3  SGN C   1      25.153  88.171  11.543  1.00  0.00     0.210 HD
ENDBRANCH  57  62
BRANCH  58  64
HETATM   64  N2  SGN C   1      23.914  90.653  11.563  1.00 48.56    -0.289 N 
ATOM     65  H2  SGN C   1      23.208  90.296  12.207  1.00  0.00     0.175 HD
BRANCH  64  66
HETATM   66  S1  SGN C   1      23.529  91.444  10.162  1.00 47.67     0.205 S 
HETATM   67  O1S SGN C   1      24.607  91.146   9.195  1.00 47.59    -0.578 OA
HETATM   68  O2S SGN C   1      23.474  92.865  10.519  1.00 48.55    -0.578 OA
HETATM   69  O3S SGN C   1      22.217  90.918   9.726  1.00 47.08    -0.578 OA
ENDBRANCH  64  66
ENDBRANCH  58  64
BRANCH  59  70
HETATM   70  O1  SGN C   1      25.308  92.405  13.251  1.00 51.36    -0.369 OA
ATOM     71  H1  SGN C   1      24.449  92.013  13.354  1.00  0.00     0.212 HD
ENDBRANCH  59  70
BRANCH  61  72
HETATM   72  C6  SGN C   1      29.086  90.890  13.787  1.00 55.48     0.227 C 
BRANCH  72  73
HETATM   73  O6  SGN C   1      29.728  91.634  12.730  1.00 61.59    -0.254 OA
BRANCH  73  74
HETATM   74  S2  SGN C   1      31.136  92.275  13.112  1.00 65.98     0.251 S 
HETATM   75  O4S SGN C   1      31.579  91.637  14.431  1.00 65.09    -0.572 OA
HETATM   76  O5S SGN C   1      30.917  93.703  13.250  1.00 65.58    -0.572 OA
HETATM   77  O6S SGN C   1      32.122  91.948  11.947  1.00 65.84    -0.572 OA
ENDBRANCH  73  74
ENDBRANCH  72  73
ENDBRANCH  61  72
ENDBRANCH  55  56
ENDBRANCH   1  55
TORSDOF 27
ENDMDL
MODEL 32
REMARK VINA RESULT:      -5.9      7.972     14.447
REMARK  27 active torsions:
REMARK  status: ('A' for Active; 'I' for Inactive)
REMARK    1  A    between atoms: C1_1  and  O1_2 
REMARK    2  A    between atoms: S1_5  and  N2_7 
REMARK    3  A    between atoms: C2_6  and  N2_7 
REMARK    4  A    between atoms: S2_10  and  O6_22 
REMARK    5  A    between atoms: C3_11  and  O3_12 
REMARK    6  A    between atoms: C4_15  and  O4_16 
REMARK    7  A    between atoms: O4_16  and  C1_24 
REMARK    8  A    between atoms: C5_18  and  C6_21 
REMARK    9  A    between atoms: C6_21  and  O6_22 
REMARK   10  A    between atoms: C2_26  and  O2_27 
REMARK   11  A    between atoms: O2_27  and  S_40 
REMARK   12  A    between atoms: C3_29  and  O3_30 
REMARK   13  A    between atoms: C4_33  and  O4_34 
REMARK   14  A    between atoms: O4_34  and  C1_41 
REMARK   15  A    between atoms: C5_35  and  C6_37 
REMARK   16  A    between atoms: S1_43  and  N2_45 
REMARK   17  A    between atoms: C2_44  and  N2_45 
REMARK   18  A    between atoms: S2_48  and  O6_60 
REMARK   19  A    between atoms: C3_49  and  O3_50 
REMARK   20  A    between atoms: C4_53  and  O4_54 
REMARK   21  A    between atoms: O4_54  and  C1_62 
REMARK   22  A    between atoms: C5_56  and  C6_59 
REMARK   23  A    between atoms: C6_59  and  O6_60 
REMARK   24  A    between atoms: C2_64  and  O2_65 
REMARK   25  A    between atoms: O2_65  and  S_77 
REMARK   26  A    between atoms: C3_67  and  O3_68 
REMARK   27  A    between atoms: C5_72  and  C6_74 
ROOT
HETATM    1  C1  IDS C   2      27.060  85.919  12.633  1.00 40.81     0.294 C 
HETATM    2  C2  IDS C   2      27.859  86.334  13.871  1.00 40.20     0.231 C 
HETATM    3  C3  IDS C   2      28.943  85.310  14.194  1.00 39.01     0.185 C 
HETATM    4  C4  IDS C   2      28.327  83.923  14.473  1.00 37.65     0.195 C 
HETATM    5  C5  IDS C   2      26.926  83.842  13.853  1.00 35.99     0.257 C 
HETATM    6  O5  IDS C   2      26.929  84.482  12.555  1.00 39.00    -0.340 OA
ENDROOT
BRANCH   4   7
HETATM    7  O4  IDS C   2      29.176  82.888  13.918  1.00 35.98    -0.348 OA
BRANCH   7   8
HETATM    8  C1  SGN C   3      30.088  82.298  14.805  1.00 35.40     0.287 C 
HETATM    9  C2  SGN C   3      31.360  81.872  14.050  1.00 33.71     0.182 C 
HETATM   10  C3  SGN C   3      31.130  80.640  13.168  1.00 35.79     0.178 C 
HETATM   11  C4  SGN C   3      30.372  79.530  13.917  1.00 36.62     0.186 C 
HETATM   12  C5  SGN C   3      29.145  80.110  14.609  1.00 39.32     0.181 C 
HETATM   13  O5  SGN C   3      29.532  81.186  15.483  1.00 37.58    -0.349 OA
BRANCH   9  14
HETATM   14  N2  SGN C   3      31.815  82.963  13.216  1.00 29.28    -0.289 N 
ATOM     15  H2  SGN C   3      31.189  83.413  12.549  1.00  0.00     0.175 HD
BRANCH  14  16
HETATM   16  S1  SGN C   3      33.384  83.453  13.384  1.00 27.84     0.205 S 
HETATM   17  O1S SGN C   3      33.418  84.134  14.664  1.00 27.65    -0.578 OA
HETATM   18  O2S SGN C   3      33.632  84.373  12.234  1.00 27.72    -0.578 OA
HETATM   19  O3S SGN C   3      34.285  82.258  13.350  1.00 28.50    -0.578 OA
ENDBRANCH  14  16
ENDBRANCH   9  14
BRANCH  10  20
HETATM   20  O3  SGN C   3      32.384  80.147  12.703  1.00 34.89    -0.391 OA
ATOM     21  H3  SGN C   3      33.025  80.200  13.402  1.00  0.00     0.210 HD
ENDBRANCH  10  20
BRANCH  11  22
HETATM   22  O4  SGN C   3      29.937  78.535  12.973  1.00 37.13    -0.348 OA
BRANCH  22  23
HETATM   23  C1  UAP C   4      30.568  77.305  13.075  1.00 39.64     0.294 C 
HETATM   24  C2  UAP C   4      31.368  77.023  11.816  1.00 38.70     0.228 C 
HETATM   25  C3  UAP C   4      31.983  75.628  11.888  1.00 38.51     0.156 C 
HETATM   26  C4  UAP C   4      32.587  75.260  13.322  1.00 38.14     0.077 C 
HETATM   27  C5  UAP C   4      32.267  76.166  14.343  1.00 38.51     0.228 C 
HETATM   28  O5  UAP C   4      31.453  77.363  14.186  1.00 37.46    -0.343 OA
BRANCH  24  29
HETATM   29  O2  UAP C   4      30.491  77.052  10.645  1.00 40.54    -0.244 OA
BRANCH  29  30
HETATM   30  S   UAP C   4      30.809  78.005   9.399  1.00 40.49     0.252 S 
HETATM   31  O1S UAP C   4      31.767  77.288   8.545  1.00 40.89    -0.572 OA
HETATM   32  O2S UAP C   4      31.390  79.240   9.946  1.00 37.88    -0.572 OA
HETATM   33  O3S UAP C   4      29.535  78.254   8.707  1.00 37.47    -0.572 OA
ENDBRANCH  29  30
ENDBRANCH  24  29
BRANCH  25  34
HETATM   34  O3  UAP C   4      33.004  75.522  10.909  1.00 38.58    -0.393 OA
ATOM     35  H3  UAP C   4      33.278  76.395  10.653  1.00  0.00     0.210 HD
ENDBRANCH  25  34
BRANCH  27  36
HETATM   36  C6  UAP C   4      32.772  76.013  15.736  1.00 37.96     0.203 C 
HETATM   37  O6A UAP C   4      32.593  74.920  16.310  1.00 40.05    -0.646 OA
HETATM   38  O6B UAP C   4      33.349  76.986  16.267  1.00 36.71    -0.646 OA
ENDBRANCH  27  36
ENDBRANCH  22  23
ENDBRANCH  11  22
BRANCH  12  39
HETATM   39  C6  SGN C   3      28.379  79.119  15.441  1.00 42.65     0.227 C 
BRANCH  39  40
HETATM   40  O6  SGN C   3      29.275  78.727  16.504  1.00 51.09    -0.254 OA
BRANCH  40  41
HETATM   41  S2  SGN C   3      29.028  77.284  17.140  1.00 54.80     0.251 S 
HETATM   42  O4S SGN C   3      27.786  77.356  17.930  1.00 54.99    -0.572 OA
HETATM   43  O5S SGN C   3      30.214  76.988  17.998  1.00 53.99    -0.572 OA
HETATM   44  O6S SGN C   3      28.909  76.347  16.031  1.00 55.43    -0.572 OA
ENDBRANCH  40  41
ENDBRANCH  39  40
ENDBRANCH  12  39
ENDBRANCH   7   8
ENDBRANCH   4   7
BRANCH   3  45
HETATM   45  O3  IDS C   2      29.684  85.744  15.326  1.00 39.65    -0.390 OA
ATOM     46  H3  IDS C   2      29.855  86.676  15.254  1.00  0.00     0.210 HD
ENDBRANCH   3  45
BRANCH   5  47
HETATM   47  C6  IDS C   2      26.383  82.430  13.676  1.00 36.10     0.206 C 
HETATM   48  O6A IDS C   2      26.297  81.984  12.510  1.00 32.44    -0.646 OA
HETATM   49  O6B IDS C   2      26.065  81.781  14.701  1.00 33.44    -0.646 OA
ENDBRANCH   5  47
BRANCH   2  50
HETATM   50  O2  IDS C   2      28.503  87.619  13.631  1.00 43.59    -0.244 OA
BRANCH  50  51
HETATM   51  S   IDS C   2      28.707  88.638  14.842  1.00 44.11     0.252 S 
HETATM   52  O1S IDS C   2      30.180  88.670  15.140  1.00 44.48    -0.572 OA
HETATM   53  O2S IDS C   2      27.920  88.121  15.981  1.00 44.29    -0.572 OA
HETATM   54  O3S IDS C   2      28.219  89.930  14.393  1.00 44.74    -0.572 OA
ENDBRANCH  50  51
ENDBRANCH   2  50
BRANCH   1  55
HETATM   55  O4  SGN C   1      25.790  86.476  12.693  1.00 44.73    -0.348 OA
BRANCH  55  56
HETATM   56  C4  SGN C   1      25.030  86.545  11.467  1.00 48.25     0.186 C 
HETATM   57  C3  SGN C   1      23.819  85.608  11.554  1.00 48.43     0.178 C 
HETATM   58  C2  SGN C   1      22.926  85.790  10.327  1.00 48.58     0.181 C 
HETATM   59  C1  SGN C   1      22.548  87.256  10.120  1.00 50.40     0.283 C 
HETATM   60  O5  SGN C   1      23.729  88.064  10.047  1.00 50.82    -0.349 OA
HETATM   61  C5  SGN C   1      24.543  87.986  11.240  1.00 51.58     0.181 C 
BRANCH  57  62
HETATM   62  O3  SGN C   1      24.254  84.260  11.621  1.00 46.09    -0.391 OA
ATOM     63  H3  SGN C   1      23.532  83.685  11.391  1.00  0.00     0.210 HD
ENDBRANCH  57  62
BRANCH  58  64
HETATM   64  N2  SGN C   1      21.725  84.992  10.453  1.00 48.56    -0.289 N 
ATOM     65  H2  SGN C   1      21.034  85.146  11.188  1.00  0.00     0.175 HD
BRANCH  64  66
HETATM   66  S1  SGN C   1      21.563  83.808   9.309  1.00 47.67     0.205 S 
HETATM   67  O1S SGN C   1      20.753  82.732   9.922  1.00 47.59    -0.578 OA
HETATM   68  O2S SGN C   1      22.929  83.374   9.000  1.00 48.55    -0.578 OA
HETATM   69  O3S SGN C   1      20.889  84.430   8.148  1.00 47.08    -0.578 OA
ENDBRANCH  64  66
ENDBRANCH  58  64
BRANCH  59  70
HETATM   70  O1  SGN C   1      21.774  87.698  11.182  1.00 51.36    -0.369 OA
ATOM     71  H1  SGN C   1      21.459  86.956  11.683  1.00  0.00     0.212 HD
ENDBRANCH  59  70
BRANCH  61  72
HETATM   72  C6  SGN C   1      25.678  88.961  11.054  1.00 55.48     0.227 C 
BRANCH  72  73
HETATM   73  O6  SGN C   1      25.163  90.310  11.068  1.00 61.59    -0.254 OA
BRANCH  73  74
HETATM   74  S2  SGN C   1      25.036  90.970  12.513  1.00 65.98     0.251 S 
HETATM   75  O4S SGN C   1      23.762  91.818  12.512  1.00 65.09    -0.572 OA
HETATM   76  O5S SGN C   1      26.225  91.782  12.703  1.00 65.58    -0.572 OA
HETATM   77  O6S SGN C   1      24.959  89.803  13.547  1.00 65.84    -0.572 OA
ENDBRANCH  73  74
ENDBRANCH  72  73
ENDBRANCH  61  72
ENDBRANCH  55  56
ENDBRANCH   1  55
TORSDOF 27
ENDMDL
MODEL 33
REMARK VINA RESULT:      -5.9      7.044     11.960
REMARK  27 active torsions:
REMARK  status: ('A' for Active; 'I' for Inactive)
REMARK    1  A    between atoms: C1_1  and  O1_2 
REMARK    2  A    between atoms: S1_5  and  N2_7 
REMARK    3  A    between atoms: C2_6  and  N2_7 
REMARK    4  A    between atoms: S2_10  and  O6_22 
REMARK    5  A    between atoms: C3_11  and  O3_12 
REMARK    6  A    between atoms: C4_15  and  O4_16 
REMARK    7  A    between atoms: O4_16  and  C1_24 
REMARK    8  A    between atoms: C5_18  and  C6_21 
REMARK    9  A    between atoms: C6_21  and  O6_22 
REMARK   10  A    between atoms: C2_26  and  O2_27 
REMARK   11  A    between atoms: O2_27  and  S_40 
REMARK   12  A    between atoms: C3_29  and  O3_30 
REMARK   13  A    between atoms: C4_33  and  O4_34 
REMARK   14  A    between atoms: O4_34  and  C1_41 
REMARK   15  A    between atoms: C5_35  and  C6_37 
REMARK   16  A    between atoms: S1_43  and  N2_45 
REMARK   17  A    between atoms: C2_44  and  N2_45 
REMARK   18  A    between atoms: S2_48  and  O6_60 
REMARK   19  A    between atoms: C3_49  and  O3_50 
REMARK   20  A    between atoms: C4_53  and  O4_54 
REMARK   21  A    between atoms: O4_54  and  C1_62 
REMARK   22  A    between atoms: C5_56  and  C6_59 
REMARK   23  A    between atoms: C6_59  and  O6_60 
REMARK   24  A    between atoms: C2_64  and  O2_65 
REMARK   25  A    between atoms: O2_65  and  S_77 
REMARK   26  A    between atoms: C3_67  and  O3_68 
REMARK   27  A    between atoms: C5_72  and  C6_74 
ROOT
HETATM    1  C1  IDS C   2      31.223  72.294  15.064  1.00 40.81     0.294 C 
HETATM    2  C2  IDS C   2      30.942  73.261  13.911  1.00 40.20     0.231 C 
HETATM    3  C3  IDS C   2      30.646  72.503  12.619  1.00 39.01     0.185 C 
HETATM    4  C4  IDS C   2      31.840  71.617  12.212  1.00 37.65     0.195 C 
HETATM    5  C5  IDS C   2      32.728  71.345  13.434  1.00 35.99     0.257 C 
HETATM    6  O5  IDS C   2      31.897  71.106  14.595  1.00 39.00    -0.340 OA
ENDROOT
BRANCH   4   7
HETATM    7  O4  IDS C   2      31.358  70.366  11.661  1.00 35.98    -0.348 OA
BRANCH   7   8
HETATM    8  C1  SGN C   3      30.163  70.434  10.930  1.00 35.40     0.287 C 
HETATM    9  C2  SGN C   3      29.844  69.063  10.309  1.00 33.71     0.182 C 
HETATM   10  C3  SGN C   3      30.767  68.728   9.131  1.00 35.79     0.178 C 
HETATM   11  C4  SGN C   3      30.905  69.909   8.155  1.00 36.62     0.186 C 
HETATM   12  C5  SGN C   3      31.218  71.188   8.923  1.00 39.32     0.181 C 
HETATM   13  O5  SGN C   3      30.209  71.426   9.920  1.00 37.58    -0.349 OA
BRANCH   9  14
HETATM   14  N2  SGN C   3      29.981  68.033  11.315  1.00 29.28    -0.289 N 
ATOM     15  H2  SGN C   3      30.530  68.190  12.160  1.00  0.00     0.175 HD
BRANCH  14  16
HETATM   16  S1  SGN C   3      29.218  66.593  11.046  1.00 27.84     0.205 S 
HETATM   17  O1S SGN C   3      28.140  66.917  10.131  1.00 27.65    -0.578 OA
HETATM   18  O2S SGN C   3      28.726  66.154  12.385  1.00 27.72    -0.578 OA
HETATM   19  O3S SGN C   3      30.190  65.617  10.458  1.00 28.50    -0.578 OA
ENDBRANCH  14  16
ENDBRANCH   9  14
BRANCH  10  20
HETATM   20  O3  SGN C   3      30.266  67.583   8.445  1.00 34.89    -0.391 OA
ATOM     21  H3  SGN C   3      30.196  66.856   9.052  1.00  0.00     0.210 HD
ENDBRANCH  10  20
BRANCH  11  22
HETATM   22  O4  SGN C   3      31.988  69.646   7.245  1.00 37.13    -0.348 OA
BRANCH  22  23
HETATM   23  C1  UAP C   4      31.645  69.640   5.902  1.00 39.64     0.294 C 
HETATM   24  C2  UAP C   4      31.799  68.243   5.329  1.00 38.70     0.228 C 
HETATM   25  C3  UAP C   4      31.516  68.257   3.830  1.00 38.51     0.156 C 
HETATM   26  C4  UAP C   4      30.262  69.158   3.416  1.00 38.14     0.077 C 
HETATM   27  C5  UAP C   4      29.757  69.968   4.445  1.00 38.51     0.228 C 
HETATM   28  O5  UAP C   4      30.283  70.036   5.801  1.00 37.46    -0.343 OA
BRANCH  24  29
HETATM   29  O2  UAP C   4      33.175  67.775   5.508  1.00 40.54    -0.244 OA
BRANCH  29  30
HETATM   30  S   UAP C   4      33.483  66.359   6.188  1.00 40.49     0.252 S 
HETATM   31  O1S UAP C   4      32.757  66.330   7.466  1.00 40.89    -0.572 OA
HETATM   32  O2S UAP C   4      34.938  66.292   6.388  1.00 37.88    -0.572 OA
HETATM   33  O3S UAP C   4      33.005  65.321   5.260  1.00 37.47    -0.572 OA
ENDBRANCH  29  30
ENDBRANCH  24  29
BRANCH  25  34
HETATM   34  O3  UAP C   4      31.301  66.925   3.388  1.00 38.58    -0.393 OA
ATOM     35  H3  UAP C   4      30.395  66.690   3.546  1.00  0.00     0.210 HD
ENDBRANCH  25  34
BRANCH  27  36
HETATM   36  C6  UAP C   4      28.568  70.846   4.261  1.00 37.96     0.203 C 
HETATM   37  O6A UAP C   4      28.066  71.376   5.272  1.00 40.05    -0.646 OA
HETATM   38  O6B UAP C   4      28.127  71.009   3.104  1.00 36.71    -0.646 OA
ENDBRANCH  27  36
ENDBRANCH  22  23
ENDBRANCH  11  22
BRANCH  12  39
HETATM   39  C6  SGN C   3      31.290  72.421   8.065  1.00 42.65     0.227 C 
BRANCH  39  40
HETATM   40  O6  SGN C   3      31.604  73.505   8.965  1.00 51.09    -0.254 OA
BRANCH  40  41
HETATM   41  S2  SGN C   3      31.063  74.948   8.551  1.00 54.80     0.251 S 
HETATM   42  O4S SGN C   3      31.974  75.483   7.522  1.00 54.99    -0.572 OA
HETATM   43  O5S SGN C   3      31.076  75.781   9.790  1.00 53.99    -0.572 OA
HETATM   44  O6S SGN C   3      29.714  74.761   8.032  1.00 55.43    -0.572 OA
ENDBRANCH  40  41
ENDBRANCH  39  40
ENDBRANCH  12  39
ENDBRANCH   7   8
ENDBRANCH   4   7
BRANCH   3  45
HETATM   45  O3  IDS C   2      30.357  73.430  11.581  1.00 39.65    -0.390 OA
ATOM     46  H3  IDS C   2      30.793  73.157  10.783  1.00  0.00     0.210 HD
ENDBRANCH   3  45
BRANCH   5  47
HETATM   47  C6  IDS C   2      33.679  70.165  13.288  1.00 36.10     0.206 C 
HETATM   48  O6A IDS C   2      33.546  69.211  14.087  1.00 32.44    -0.646 OA
HETATM   49  O6B IDS C   2      34.534  70.199  12.371  1.00 33.44    -0.646 OA
ENDBRANCH   5  47
BRANCH   2  50
HETATM   50  O2  IDS C   2      29.783  74.085  14.232  1.00 43.59    -0.244 OA
BRANCH  50  51
HETATM   51  S   IDS C   2      29.937  75.672  14.294  1.00 44.11     0.252 S 
HETATM   52  O1S IDS C   2      31.316  75.954  14.823  1.00 44.48    -0.572 OA
HETATM   53  O2S IDS C   2      28.881  76.175  15.197  1.00 44.29    -0.572 OA
HETATM   54  O3S IDS C   2      29.767  76.166  12.939  1.00 44.74    -0.572 OA
ENDBRANCH  50  51
ENDBRANCH   2  50
BRANCH   1  55
HETATM   55  O4  SGN C   1      32.029  72.918  16.005  1.00 44.73    -0.348 OA
BRANCH  55  56
HETATM   56  C4  SGN C   1      31.906  72.491  17.380  1.00 48.25     0.186 C 
HETATM   57  C3  SGN C   1      33.062  71.547  17.735  1.00 48.43     0.178 C 
HETATM   58  C2  SGN C   1      33.029  71.215  19.226  1.00 48.58     0.181 C 
HETATM   59  C1  SGN C   1      32.992  72.479  20.082  1.00 50.40     0.283 C 
HETATM   60  O5  SGN C   1      31.888  73.306  19.694  1.00 50.82    -0.349 OA
HETATM   61  C5  SGN C   1      31.950  73.717  18.308  1.00 51.58     0.181 C 
BRANCH  57  62
HETATM   62  O3  SGN C   1      32.954  70.348  16.985  1.00 46.09    -0.391 OA
ATOM     63  H3  SGN C   1      33.649  70.319  16.337  1.00  0.00     0.210 HD
ENDBRANCH  57  62
BRANCH  58  64
HETATM   64  N2  SGN C   1      34.179  70.413  19.591  1.00 48.56    -0.289 N 
ATOM     65  H2  SGN C   1      35.138  70.738  19.469  1.00  0.00     0.175 HD
BRANCH  64  66
HETATM   66  S1  SGN C   1      33.810  68.929  20.222  1.00 47.67     0.205 S 
HETATM   67  O1S SGN C   1      35.065  68.147  20.229  1.00 47.59    -0.578 OA
HETATM   68  O2S SGN C   1      32.802  68.362  19.321  1.00 48.55    -0.578 OA
HETATM   69  O3S SGN C   1      33.285  69.166  21.584  1.00 47.08    -0.578 OA
ENDBRANCH  64  66
ENDBRANCH  58  64
BRANCH  59  70
HETATM   70  O1  SGN C   1      34.166  73.198  19.913  1.00 51.36    -0.369 OA
ATOM     71  H1  SGN C   1      34.906  72.684  20.211  1.00  0.00     0.212 HD
ENDBRANCH  59  70
BRANCH  61  72
HETATM   72  C6  SGN C   1      30.791  74.656  18.085  1.00 55.48     0.227 C 
BRANCH  72  73
HETATM   73  O6  SGN C   1      30.814  75.697  19.086  1.00 61.59    -0.254 OA
BRANCH  73  74
HETATM   74  S2  SGN C   1      29.432  75.938  19.843  1.00 65.98     0.251 S 
HETATM   75  O4S SGN C   1      29.625  77.147  20.762  1.00 65.09    -0.572 OA
HETATM   76  O5S SGN C   1      29.156  74.727  20.595  1.00 65.58    -0.572 OA
HETATM   77  O6S SGN C   1      28.349  76.204  18.751  1.00 65.84    -0.572 OA
ENDBRANCH  73  74
ENDBRANCH  72  73
ENDBRANCH  61  72
ENDBRANCH  55  56
ENDBRANCH   1  55
TORSDOF 27
ENDMDL
MODEL 34
REMARK VINA RESULT:      -5.9      5.770      9.851
REMARK  27 active torsions:
REMARK  status: ('A' for Active; 'I' for Inactive)
REMARK    1  A    between atoms: C1_1  and  O1_2 
REMARK    2  A    between atoms: S1_5  and  N2_7 
REMARK    3  A    between atoms: C2_6  and  N2_7 
REMARK    4  A    between atoms: S2_10  and  O6_22 
REMARK    5  A    between atoms: C3_11  and  O3_12 
REMARK    6  A    between atoms: C4_15  and  O4_16 
REMARK    7  A    between atoms: O4_16  and  C1_24 
REMARK    8  A    between atoms: C5_18  and  C6_21 
REMARK    9  A    between atoms: C6_21  and  O6_22 
REMARK   10  A    between atoms: C2_26  and  O2_27 
REMARK   11  A    between atoms: O2_27  and  S_40 
REMARK   12  A    between atoms: C3_29  and  O3_30 
REMARK   13  A    between atoms: C4_33  and  O4_34 
REMARK   14  A    between atoms: O4_34  and  C1_41 
REMARK   15  A    between atoms: C5_35  and  C6_37 
REMARK   16  A    between atoms: S1_43  and  N2_45 
REMARK   17  A    between atoms: C2_44  and  N2_45 
REMARK   18  A    between atoms: S2_48  and  O6_60 
REMARK   19  A    between atoms: C3_49  and  O3_50 
REMARK   20  A    between atoms: C4_53  and  O4_54 
REMARK   21  A    between atoms: O4_54  and  C1_62 
REMARK   22  A    between atoms: C5_56  and  C6_59 
REMARK   23  A    between atoms: C6_59  and  O6_60 
REMARK   24  A    between atoms: C2_64  and  O2_65 
REMARK   25  A    between atoms: O2_65  and  S_77 
REMARK   26  A    between atoms: C3_67  and  O3_68 
REMARK   27  A    between atoms: C5_72  and  C6_74 
ROOT
HETATM    1  C1  IDS C   2      30.669  74.148  14.219  1.00 40.81     0.294 C 
HETATM    2  C2  IDS C   2      31.098  74.697  12.856  1.00 40.20     0.231 C 
HETATM    3  C3  IDS C   2      30.868  73.668  11.753  1.00 39.01     0.185 C 
HETATM    4  C4  IDS C   2      31.676  72.382  12.019  1.00 37.65     0.195 C 
HETATM    5  C5  IDS C   2      32.039  72.294  13.507  1.00 35.99     0.257 C 
HETATM    6  O5  IDS C   2      30.915  72.727  14.309  1.00 39.00    -0.340 OA
ENDROOT
BRANCH   4   7
HETATM    7  O4  IDS C   2      30.897  71.223  11.629  1.00 35.98    -0.348 OA
BRANCH   7   8
HETATM    8  C1  SGN C   3      31.284  70.594  10.437  1.00 35.40     0.287 C 
HETATM    9  C2  SGN C   3      30.040  70.196   9.621  1.00 33.71     0.182 C 
HETATM   10  C3  SGN C   3      29.300  69.002  10.234  1.00 35.79     0.178 C 
HETATM   11  C4  SGN C   3      30.262  67.865  10.619  1.00 36.62     0.186 C 
HETATM   12  C5  SGN C   3      31.435  68.420  11.416  1.00 39.32     0.181 C 
HETATM   13  O5  SGN C   3      32.095  69.457  10.669  1.00 37.58    -0.349 OA
BRANCH   9  14
HETATM   14  N2  SGN C   3      29.132  71.319   9.547  1.00 29.28    -0.289 N 
ATOM     15  H2  SGN C   3      28.592  71.615  10.360  1.00  0.00     0.175 HD
BRANCH  14  16
HETATM   16  S1  SGN C   3      28.999  72.103   8.100  1.00 27.84     0.205 S 
HETATM   17  O1S SGN C   3      30.013  71.493   7.260  1.00 27.65    -0.578 OA
HETATM   18  O2S SGN C   3      29.287  73.537   8.403  1.00 27.72    -0.578 OA
HETATM   19  O3S SGN C   3      27.618  71.912   7.555  1.00 28.50    -0.578 OA
ENDBRANCH  14  16
ENDBRANCH   9  14
BRANCH  10  20
HETATM   20  O3  SGN C   3      28.323  68.525   9.312  1.00 34.89    -0.391 OA
ATOM     21  H3  SGN C   3      27.498  68.391   9.765  1.00  0.00     0.210 HD
ENDBRANCH  10  20
BRANCH  11  22
HETATM   22  O4  SGN C   3      29.562  66.911  11.437  1.00 37.13    -0.348 OA
BRANCH  22  23
HETATM   23  C1  UAP C   4      29.820  65.580  11.149  1.00 39.64     0.294 C 
HETATM   24  C2  UAP C   4      30.559  65.465   9.828  1.00 38.70     0.228 C 
HETATM   25  C3  UAP C   4      30.756  63.996   9.464  1.00 38.51     0.156 C 
HETATM   26  C4  UAP C   4      31.177  63.074  10.700  1.00 38.14     0.077 C 
HETATM   27  C5  UAP C   4      31.083  63.695  11.954  1.00 38.51     0.228 C 
HETATM   28  O5  UAP C   4      30.642  65.063  12.187  1.00 37.46    -0.343 OA
BRANCH  24  29
HETATM   29  O2  UAP C   4      29.771  66.077   8.756  1.00 40.54    -0.244 OA
BRANCH  29  30
HETATM   30  S   UAP C   4      30.461  66.547   7.390  1.00 40.49     0.252 S 
HETATM   31  O1S UAP C   4      29.770  67.772   6.961  1.00 40.89    -0.572 OA
HETATM   32  O2S UAP C   4      30.279  65.454   6.425  1.00 37.88    -0.572 OA
HETATM   33  O3S UAP C   4      31.882  66.792   7.685  1.00 37.47    -0.572 OA
ENDBRANCH  29  30
ENDBRANCH  24  29
BRANCH  25  34
HETATM   34  O3  UAP C   4      31.745  63.901   8.450  1.00 38.58    -0.393 OA
ATOM     35  H3  UAP C   4      31.343  64.084   7.609  1.00  0.00     0.210 HD
ENDBRANCH  25  34
BRANCH  27  36
HETATM   36  C6  UAP C   4      31.470  63.009  13.218  1.00 37.96     0.203 C 
HETATM   37  O6A UAP C   4      30.856  63.307  14.261  1.00 40.05    -0.646 OA
HETATM   38  O6B UAP C   4      32.392  62.167  13.176  1.00 36.71    -0.646 OA
ENDBRANCH  27  36
ENDBRANCH  22  23
ENDBRANCH  11  22
BRANCH  12  39
HETATM   39  C6  SGN C   3      32.479  67.397  11.770  1.00 42.65     0.227 C 
BRANCH  39  40
HETATM   40  O6  SGN C   3      33.711  67.881  11.191  1.00 51.09    -0.254 OA
BRANCH  40  41
HETATM   41  S2  SGN C   3      34.593  66.807  10.407  1.00 54.80     0.251 S 
HETATM   42  O4S SGN C   3      34.911  67.377   9.085  1.00 54.99    -0.572 OA
HETATM   43  O5S SGN C   3      33.761  65.572  10.292  1.00 53.99    -0.572 OA
HETATM   44  O6S SGN C   3      35.794  66.585  11.202  1.00 55.43    -0.572 OA
ENDBRANCH  40  41
ENDBRANCH  39  40
ENDBRANCH  12  39
ENDBRANCH   7   8
ENDBRANCH   4   7
BRANCH   3  45
HETATM   45  O3  IDS C   2      31.244  74.224  10.500  1.00 39.65    -0.390 OA
ATOM     46  H3  IDS C   2      30.499  74.667  10.113  1.00  0.00     0.210 HD
ENDBRANCH   3  45
BRANCH   5  47
HETATM   47  C6  IDS C   2      32.450  70.909  13.988  1.00 36.10     0.206 C 
HETATM   48  O6A IDS C   2      33.537  70.450  13.573  1.00 32.44    -0.646 OA
HETATM   49  O6B IDS C   2      31.691  70.305  14.783  1.00 33.44    -0.646 OA
ENDBRANCH   5  47
BRANCH   2  50
HETATM   50  O2  IDS C   2      30.319  75.888  12.539  1.00 43.59    -0.244 OA
BRANCH  50  51
HETATM   51  S   IDS C   2      31.065  77.277  12.296  1.00 44.11     0.252 S 
HETATM   52  O1S IDS C   2      32.116  77.398  13.364  1.00 44.48    -0.572 OA
HETATM   53  O2S IDS C   2      30.044  78.341  12.396  1.00 44.29    -0.572 OA
HETATM   54  O3S IDS C   2      31.650  77.215  10.969  1.00 44.74    -0.572 OA
ENDBRANCH  50  51
ENDBRANCH   2  50
BRANCH   1  55
HETATM   55  O4  SGN C   1      31.386  74.786  15.221  1.00 44.73    -0.348 OA
BRANCH  55  56
HETATM   56  C4  SGN C   1      30.817  74.796  16.549  1.00 48.25     0.186 C 
HETATM   57  C3  SGN C   1      31.716  74.002  17.505  1.00 48.43     0.178 C 
HETATM   58  C2  SGN C   1      31.206  74.138  18.939  1.00 48.58     0.181 C 
HETATM   59  C1  SGN C   1      31.037  75.603  19.339  1.00 50.40     0.283 C 
HETATM   60  O5  SGN C   1      30.186  76.275  18.402  1.00 50.82    -0.349 OA
HETATM   61  C5  SGN C   1      30.699  76.246  17.050  1.00 51.58     0.181 C 
BRANCH  57  62
HETATM   62  O3  SGN C   1      31.722  72.632  17.137  1.00 46.09    -0.391 OA
ATOM     63  H3  SGN C   1      31.942  72.555  16.216  1.00  0.00     0.210 HD
ENDBRANCH  57  62
BRANCH  58  64
HETATM   64  N2  SGN C   1      32.110  73.483  19.862  1.00 48.56    -0.289 N 
ATOM     65  H2  SGN C   1      32.886  73.969  20.311  1.00  0.00     0.175 HD
BRANCH  64  66
HETATM   66  S1  SGN C   1      31.782  71.883  20.127  1.00 47.67     0.205 S 
HETATM   67  O1S SGN C   1      32.758  71.111  19.327  1.00 47.59    -0.578 OA
HETATM   68  O2S SGN C   1      30.403  71.687  19.670  1.00 48.55    -0.578 OA
HETATM   69  O3S SGN C   1      31.936  71.655  21.580  1.00 47.08    -0.578 OA
ENDBRANCH  64  66
ENDBRANCH  58  64
BRANCH  59  70
HETATM   70  O1  SGN C   1      32.272  76.235  19.348  1.00 51.36    -0.369 OA
ATOM     71  H1  SGN C   1      32.346  76.810  18.596  1.00  0.00     0.212 HD
ENDBRANCH  59  70
BRANCH  61  72
HETATM   72  C6  SGN C   1      29.758  77.075  16.213  1.00 55.48     0.227 C 
BRANCH  72  73
HETATM   73  O6  SGN C   1      28.488  77.195  16.890  1.00 61.59    -0.254 OA
BRANCH  73  74
HETATM   74  S2  SGN C   1      27.206  77.075  15.950  1.00 65.98     0.251 S 
HETATM   75  O4S SGN C   1      26.522  78.444  15.945  1.00 65.09    -0.572 OA
HETATM   76  O5S SGN C   1      26.360  76.051  16.533  1.00 65.58    -0.572 OA
HETATM   77  O6S SGN C   1      27.713  76.672  14.530  1.00 65.84    -0.572 OA
ENDBRANCH  73  74
ENDBRANCH  72  73
ENDBRANCH  61  72
ENDBRANCH  55  56
ENDBRANCH   1  55
TORSDOF 27
ENDMDL
MODEL 35
REMARK VINA RESULT:      -5.9     15.416     20.541
REMARK  27 active torsions:
REMARK  status: ('A' for Active; 'I' for Inactive)
REMARK    1  A    between atoms: C1_1  and  O1_2 
REMARK    2  A    between atoms: S1_5  and  N2_7 
REMARK    3  A    between atoms: C2_6  and  N2_7 
REMARK    4  A    between atoms: S2_10  and  O6_22 
REMARK    5  A    between atoms: C3_11  and  O3_12 
REMARK    6  A    between atoms: C4_15  and  O4_16 
REMARK    7  A    between atoms: O4_16  and  C1_24 
REMARK    8  A    between atoms: C5_18  and  C6_21 
REMARK    9  A    between atoms: C6_21  and  O6_22 
REMARK   10  A    between atoms: C2_26  and  O2_27 
REMARK   11  A    between atoms: O2_27  and  S_40 
REMARK   12  A    between atoms: C3_29  and  O3_30 
REMARK   13  A    between atoms: C4_33  and  O4_34 
REMARK   14  A    between atoms: O4_34  and  C1_41 
REMARK   15  A    between atoms: C5_35  and  C6_37 
REMARK   16  A    between atoms: S1_43  and  N2_45 
REMARK   17  A    between atoms: C2_44  and  N2_45 
REMARK   18  A    between atoms: S2_48  and  O6_60 
REMARK   19  A    between atoms: C3_49  and  O3_50 
REMARK   20  A    between atoms: C4_53  and  O4_54 
REMARK   21  A    between atoms: O4_54  and  C1_62 
REMARK   22  A    between atoms: C5_56  and  C6_59 
REMARK   23  A    between atoms: C6_59  and  O6_60 
REMARK   24  A    between atoms: C2_64  and  O2_65 
REMARK   25  A    between atoms: O2_65  and  S_77 
REMARK   26  A    between atoms: C3_67  and  O3_68 
REMARK   27  A    between atoms: C5_72  and  C6_74 
ROOT
HETATM    1  C1  IDS C   2      25.370  89.205  11.803  1.00 40.81     0.294 C 
HETATM    2  C2  IDS C   2      26.054  87.942  12.333  1.00 40.20     0.231 C 
HETATM    3  C3  IDS C   2      25.522  86.695  11.632  1.00 39.01     0.185 C 
HETATM    4  C4  IDS C   2      24.004  86.540  11.857  1.00 37.65     0.195 C 
HETATM    5  C5  IDS C   2      23.394  87.893  12.245  1.00 35.99     0.257 C 
HETATM    6  O5  IDS C   2      23.994  88.944  11.450  1.00 39.00    -0.340 OA
ENDROOT
BRANCH   4   7
HETATM    7  O4  IDS C   2      23.377  86.042  10.649  1.00 35.98    -0.348 OA
BRANCH   7   8
HETATM    8  C1  SGN C   3      24.098  85.073   9.935  1.00 35.40     0.287 C 
HETATM    9  C2  SGN C   3      23.270  84.574   8.737  1.00 33.71     0.182 C 
HETATM   10  C3  SGN C   3      22.111  83.668   9.167  1.00 35.79     0.178 C 
HETATM   11  C4  SGN C   3      22.559  82.604  10.184  1.00 36.62     0.186 C 
HETATM   12  C5  SGN C   3      23.365  83.254  11.301  1.00 39.32     0.181 C 
HETATM   13  O5  SGN C   3      24.479  83.980  10.750  1.00 37.58    -0.349 OA
BRANCH   9  14
HETATM   14  N2  SGN C   3      22.733  85.707   8.016  1.00 29.28    -0.289 N 
ATOM     15  H2  SGN C   3      22.087  86.358   8.462  1.00  0.00     0.175 HD
BRANCH  14  16
HETATM   16  S1  SGN C   3      23.202  85.908   6.445  1.00 27.84     0.205 S 
HETATM   17  O1S SGN C   3      23.074  84.588   5.855  1.00 27.65    -0.578 OA
HETATM   18  O2S SGN C   3      24.619  86.373   6.516  1.00 27.72    -0.578 OA
HETATM   19  O3S SGN C   3      22.314  86.916   5.785  1.00 28.50    -0.578 OA
ENDBRANCH  14  16
ENDBRANCH   9  14
BRANCH  10  20
HETATM   20  O3  SGN C   3      21.547  83.040   8.018  1.00 34.89    -0.391 OA
ATOM     21  H3  SGN C   3      21.883  82.155   7.944  1.00  0.00     0.210 HD
ENDBRANCH  10  20
BRANCH  11  22
HETATM   22  O4  SGN C   3      21.397  81.981  10.760  1.00 37.13    -0.348 OA
BRANCH  22  23
HETATM   23  C1  UAP C   4      20.411  82.853  11.195  1.00 39.64     0.294 C 
HETATM   24  C2  UAP C   4      19.043  82.339  10.786  1.00 38.70     0.228 C 
HETATM   25  C3  UAP C   4      17.966  83.347  11.179  1.00 38.51     0.156 C 
HETATM   26  C4  UAP C   4      18.181  83.991  12.626  1.00 38.14     0.077 C 
HETATM   27  C5  UAP C   4      19.423  83.712  13.215  1.00 38.51     0.228 C 
HETATM   28  O5  UAP C   4      20.481  82.912  12.614  1.00 37.46    -0.343 OA
BRANCH  24  29
HETATM   29  O2  UAP C   4      18.979  82.180   9.332  1.00 40.54    -0.244 OA
BRANCH  29  30
HETATM   30  S   UAP C   4      18.591  80.774   8.672  1.00 40.49     0.252 S 
HETATM   31  O1S UAP C   4      17.356  80.320   9.327  1.00 40.89    -0.572 OA
HETATM   32  O2S UAP C   4      19.712  79.859   8.933  1.00 37.88    -0.572 OA
HETATM   33  O3S UAP C   4      18.395  81.011   7.233  1.00 37.47    -0.572 OA
ENDBRANCH  29  30
ENDBRANCH  24  29
BRANCH  25  34
HETATM   34  O3  UAP C   4      16.699  82.710  11.133  1.00 38.58    -0.393 OA
ATOM     35  H3  UAP C   4      16.800  81.802  11.392  1.00  0.00     0.210 HD
ENDBRANCH  25  34
BRANCH  27  36
HETATM   36  C6  UAP C   4      19.790  84.192  14.576  1.00 37.96     0.203 C 
HETATM   37  O6A UAP C   4      18.914  84.171  15.463  1.00 40.05    -0.646 OA
HETATM   38  O6B UAP C   4      20.957  84.595  14.766  1.00 36.71    -0.646 OA
ENDBRANCH  27  36
ENDBRANCH  22  23
ENDBRANCH  11  22
BRANCH  12  39
HETATM   39  C6  SGN C   3      23.923  82.284  12.305  1.00 42.65     0.227 C 
BRANCH  39  40
HETATM   40  O6  SGN C   3      25.118  82.905  12.826  1.00 51.09    -0.254 OA
BRANCH  40  41
HETATM   41  S2  SGN C   3      25.256  82.951  14.416  1.00 54.80     0.251 S 
HETATM   42  O4S SGN C   3      26.261  83.979  14.742  1.00 54.99    -0.572 OA
HETATM   43  O5S SGN C   3      25.695  81.590  14.845  1.00 53.99    -0.572 OA
HETATM   44  O6S SGN C   3      23.942  83.293  14.945  1.00 55.43    -0.572 OA
ENDBRANCH  40  41
ENDBRANCH  39  40
ENDBRANCH  12  39
ENDBRANCH   7   8
ENDBRANCH   4   7
BRANCH   3  45
HETATM   45  O3  IDS C   2      26.202  85.549  12.124  1.00 39.65    -0.390 OA
ATOM     46  H3  IDS C   2      25.728  84.766  11.869  1.00  0.00     0.210 HD
ENDBRANCH   3  45
BRANCH   5  47
HETATM   47  C6  IDS C   2      21.883  87.988  12.081  1.00 36.10     0.206 C 
HETATM   48  O6A IDS C   2      21.171  87.348  12.886  1.00 32.44    -0.646 OA
HETATM   49  O6B IDS C   2      21.428  88.711  11.163  1.00 33.44    -0.646 OA
ENDBRANCH   5  47
BRANCH   2  50
HETATM   50  O2  IDS C   2      27.489  88.023  12.092  1.00 43.59    -0.244 OA
BRANCH  50  51
HETATM   51  S   IDS C   2      28.504  87.412  13.161  1.00 44.11     0.252 S 
HETATM   52  O1S IDS C   2      29.559  88.454  13.404  1.00 44.48    -0.572 OA
HETATM   53  O2S IDS C   2      29.065  86.178  12.571  1.00 44.29    -0.572 OA
HETATM   54  O3S IDS C   2      27.735  87.133  14.361  1.00 44.74    -0.572 OA
ENDBRANCH  50  51
ENDBRANCH   2  50
BRANCH   1  55
HETATM   55  O4  SGN C   1      25.397  90.190  12.780  1.00 44.73    -0.348 OA
BRANCH  55  56
HETATM   56  C4  SGN C   1      25.635  91.550  12.354  1.00 48.25     0.186 C 
HETATM   57  C3  SGN C   1      24.360  92.382  12.539  1.00 48.43     0.178 C 
HETATM   58  C2  SGN C   1      24.645  93.853  12.238  1.00 48.58     0.181 C 
HETATM   59  C1  SGN C   1      25.832  94.371  13.048  1.00 50.40     0.283 C 
HETATM   60  O5  SGN C   1      26.982  93.546  12.821  1.00 50.82    -0.349 OA
HETATM   61  C5  SGN C   1      26.768  92.165  13.193  1.00 51.58     0.181 C 
BRANCH  57  62
HETATM   62  O3  SGN C   1      23.345  91.913  11.665  1.00 46.09    -0.391 OA
ATOM     63  H3  SGN C   1      23.250  90.974  11.770  1.00  0.00     0.210 HD
ENDBRANCH  57  62
BRANCH  58  64
HETATM   64  N2  SGN C   1      23.476  94.662  12.516  1.00 48.56    -0.289 N 
ATOM     65  H2  SGN C   1      23.059  94.727  13.445  1.00  0.00     0.175 HD
BRANCH  64  66
HETATM   66  S1  SGN C   1      22.873  95.471  11.206  1.00 47.67     0.205 S 
HETATM   67  O1S SGN C   1      24.035  96.017  10.471  1.00 47.59    -0.578 OA
HETATM   68  O2S SGN C   1      22.015  96.524  11.759  1.00 48.55    -0.578 OA
HETATM   69  O3S SGN C   1      22.115  94.482  10.409  1.00 47.08    -0.578 OA
ENDBRANCH  64  66
ENDBRANCH  58  64
BRANCH  59  70
HETATM   70  O1  SGN C   1      25.528  94.346  14.401  1.00 51.36    -0.369 OA
ATOM     71  H1  SGN C   1      24.587  94.302  14.519  1.00  0.00     0.212 HD
ENDBRANCH  59  70
BRANCH  61  72
HETATM   72  C6  SGN C   1      28.085  91.457  12.998  1.00 55.48     0.227 C 
BRANCH  72  73
HETATM   73  O6  SGN C   1      29.035  91.926  13.980  1.00 61.59    -0.254 OA
BRANCH  73  74
HETATM   74  S2  SGN C   1      30.514  92.158  13.434  1.00 65.98     0.251 S 
HETATM   75  O4S SGN C   1      31.477  91.656  14.512  1.00 65.09    -0.572 OA
HETATM   76  O5S SGN C   1      30.652  93.585  13.208  1.00 65.58    -0.572 OA
HETATM   77  O6S SGN C   1      30.648  91.345  12.108  1.00 65.84    -0.572 OA
ENDBRANCH  73  74
ENDBRANCH  72  73
ENDBRANCH  61  72
ENDBRANCH  55  56
ENDBRANCH   1  55
TORSDOF 27
ENDMDL
MODEL 36
REMARK VINA RESULT:      -5.9     13.722     18.333
REMARK  27 active torsions:
REMARK  status: ('A' for Active; 'I' for Inactive)
REMARK    1  A    between atoms: C1_1  and  O1_2 
REMARK    2  A    between atoms: S1_5  and  N2_7 
REMARK    3  A    between atoms: C2_6  and  N2_7 
REMARK    4  A    between atoms: S2_10  and  O6_22 
REMARK    5  A    between atoms: C3_11  and  O3_12 
REMARK    6  A    between atoms: C4_15  and  O4_16 
REMARK    7  A    between atoms: O4_16  and  C1_24 
REMARK    8  A    between atoms: C5_18  and  C6_21 
REMARK    9  A    between atoms: C6_21  and  O6_22 
REMARK   10  A    between atoms: C2_26  and  O2_27 
REMARK   11  A    between atoms: O2_27  and  S_40 
REMARK   12  A    between atoms: C3_29  and  O3_30 
REMARK   13  A    between atoms: C4_33  and  O4_34 
REMARK   14  A    between atoms: O4_34  and  C1_41 
REMARK   15  A    between atoms: C5_35  and  C6_37 
REMARK   16  A    between atoms: S1_43  and  N2_45 
REMARK   17  A    between atoms: C2_44  and  N2_45 
REMARK   18  A    between atoms: S2_48  and  O6_60 
REMARK   19  A    between atoms: C3_49  and  O3_50 
REMARK   20  A    between atoms: C4_53  and  O4_54 
REMARK   21  A    between atoms: O4_54  and  C1_62 
REMARK   22  A    between atoms: C5_56  and  C6_59 
REMARK   23  A    between atoms: C6_59  and  O6_60 
REMARK   24  A    between atoms: C2_64  and  O2_65 
REMARK   25  A    between atoms: O2_65  and  S_77 
REMARK   26  A    between atoms: C3_67  and  O3_68 
REMARK   27  A    between atoms: C5_72  and  C6_74 
ROOT
HETATM    1  C1  IDS C   2      22.345  84.006  11.869  1.00 40.81     0.294 C 
HETATM    2  C2  IDS C   2      21.938  85.440  12.220  1.00 40.20     0.231 C 
HETATM    3  C3  IDS C   2      23.011  86.435  11.787  1.00 39.01     0.185 C 
HETATM    4  C4  IDS C   2      24.354  86.140  12.484  1.00 37.65     0.195 C 
HETATM    5  C5  IDS C   2      24.378  84.687  12.975  1.00 35.99     0.257 C 
HETATM    6  O5  IDS C   2      23.774  83.827  11.980  1.00 39.00    -0.340 OA
ENDROOT
BRANCH   4   7
HETATM    7  O4  IDS C   2      25.448  86.371  11.562  1.00 35.98    -0.348 OA
BRANCH   7   8
HETATM    8  C1  SGN C   3      25.824  87.708  11.373  1.00 35.40     0.287 C 
HETATM    9  C2  SGN C   3      26.790  87.823  10.180  1.00 33.71     0.182 C 
HETATM   10  C3  SGN C   3      28.185  87.278  10.506  1.00 35.79     0.178 C 
HETATM   11  C4  SGN C   3      28.702  87.794  11.861  1.00 36.62     0.186 C 
HETATM   12  C5  SGN C   3      27.633  87.612  12.931  1.00 39.32     0.181 C 
HETATM   13  O5  SGN C   3      26.416  88.267  12.532  1.00 37.58    -0.349 OA
BRANCH   9  14
HETATM   14  N2  SGN C   3      26.256  87.090   9.054  1.00 29.28    -0.289 N 
ATOM     15  H2  SGN C   3      26.005  86.105   9.136  1.00  0.00     0.175 HD
BRANCH  14  16
HETATM   16  S1  SGN C   3      26.067  87.905   7.629  1.00 27.84     0.205 S 
HETATM   17  O1S SGN C   3      24.739  88.483   7.713  1.00 27.65    -0.578 OA
HETATM   18  O2S SGN C   3      26.177  86.864   6.565  1.00 27.72    -0.578 OA
HETATM   19  O3S SGN C   3      27.135  88.946   7.507  1.00 28.50    -0.578 OA
ENDBRANCH  14  16
ENDBRANCH   9  14
BRANCH  10  20
HETATM   20  O3  SGN C   3      29.092  87.641   9.467  1.00 34.89    -0.391 OA
ATOM     21  H3  SGN C   3      28.644  88.190   8.834  1.00  0.00     0.210 HD
ENDBRANCH  10  20
BRANCH  11  22
HETATM   22  O4  SGN C   3      29.865  87.038  12.242  1.00 37.13    -0.348 OA
BRANCH  22  23
HETATM   23  C1  UAP C   4      29.778  85.670  12.034  1.00 39.64     0.294 C 
HETATM   24  C2  UAP C   4      30.989  85.182  11.260  1.00 38.70     0.228 C 
HETATM   25  C3  UAP C   4      30.846  83.695  10.946  1.00 38.51     0.156 C 
HETATM   26  C4  UAP C   4      30.268  82.831  12.161  1.00 38.14     0.077 C 
HETATM   27  C5  UAP C   4      29.775  83.585  13.235  1.00 38.51     0.228 C 
HETATM   28  O5  UAP C   4      29.754  85.039  13.307  1.00 37.46    -0.343 OA
BRANCH  24  29
HETATM   29  O2  UAP C   4      31.088  85.889   9.982  1.00 40.54    -0.244 OA
BRANCH  29  30
HETATM   30  S   UAP C   4      32.411  86.699   9.587  1.00 40.49     0.252 S 
HETATM   31  O1S UAP C   4      33.504  86.164  10.413  1.00 40.89    -0.572 OA
HETATM   32  O2S UAP C   4      32.147  88.114   9.887  1.00 37.88    -0.572 OA
HETATM   33  O3S UAP C   4      32.645  86.473   8.152  1.00 37.47    -0.572 OA
ENDBRANCH  29  30
ENDBRANCH  24  29
BRANCH  25  34
HETATM   34  O3  UAP C   4      32.112  83.180  10.565  1.00 38.58    -0.393 OA
ATOM     35  H3  UAP C   4      32.039  82.788   9.703  1.00  0.00     0.210 HD
ENDBRANCH  25  34
BRANCH  27  36
HETATM   36  C6  UAP C   4      29.234  82.956  14.472  1.00 37.96     0.203 C 
HETATM   37  O6A UAP C   4      28.677  81.845  14.373  1.00 40.05    -0.646 OA
HETATM   38  O6B UAP C   4      29.360  83.571  15.552  1.00 36.71    -0.646 OA
ENDBRANCH  27  36
ENDBRANCH  22  23
ENDBRANCH  11  22
BRANCH  12  39
HETATM   39  C6  SGN C   3      28.010  88.163  14.279  1.00 42.65     0.227 C 
BRANCH  39  40
HETATM   40  O6  SGN C   3      28.138  87.017  15.148  1.00 51.09    -0.254 OA
BRANCH  40  41
HETATM   41  S2  SGN C   3      28.282  87.323  16.707  1.00 54.80     0.251 S 
HETATM   42  O4S SGN C   3      27.080  88.069  17.124  1.00 54.99    -0.572 OA
HETATM   43  O5S SGN C   3      29.523  88.138  16.869  1.00 53.99    -0.572 OA
HETATM   44  O6S SGN C   3      28.381  86.037  17.383  1.00 55.43    -0.572 OA
ENDBRANCH  40  41
ENDBRANCH  39  40
ENDBRANCH  12  39
ENDBRANCH   7   8
ENDBRANCH   4   7
BRANCH   3  45
HETATM   45  O3  IDS C   2      22.585  87.755  12.097  1.00 39.65    -0.390 OA
ATOM     46  H3  IDS C   2      23.311  88.357  11.985  1.00  0.00     0.210 HD
ENDBRANCH   3  45
BRANCH   5  47
HETATM   47  C6  IDS C   2      25.762  84.137  13.290  1.00 36.10     0.206 C 
HETATM   48  O6A IDS C   2      26.378  84.635  14.258  1.00 32.44    -0.646 OA
HETATM   49  O6B IDS C   2      26.210  83.207  12.577  1.00 33.44    -0.646 OA
ENDBRANCH   5  47
BRANCH   2  50
HETATM   50  O2  IDS C   2      20.697  85.780  11.537  1.00 43.59    -0.244 OA
BRANCH  50  51
HETATM   51  S   IDS C   2      19.447  86.296  12.384  1.00 44.11     0.252 S 
HETATM   52  O1S IDS C   2      18.617  87.143  11.461  1.00 44.48    -0.572 OA
HETATM   53  O2S IDS C   2      19.984  87.074  13.520  1.00 44.29    -0.572 OA
HETATM   54  O3S IDS C   2      18.725  85.119  12.831  1.00 44.74    -0.572 OA
ENDBRANCH  50  51
ENDBRANCH   2  50
BRANCH   1  55
HETATM   55  O4  SGN C   1      21.719  83.122  12.737  1.00 44.73    -0.348 OA
BRANCH  55  56
HETATM   56  C4  SGN C   1      21.114  81.941  12.168  1.00 48.25     0.186 C 
HETATM   57  C3  SGN C   1      20.598  82.250  10.757  1.00 48.43     0.178 C 
HETATM   58  C2  SGN C   1      20.097  80.970  10.089  1.00 48.58     0.181 C 
HETATM   59  C1  SGN C   1      21.155  79.869  10.121  1.00 50.40     0.283 C 
HETATM   60  O5  SGN C   1      21.584  79.636  11.469  1.00 50.82    -0.349 OA
HETATM   61  C5  SGN C   1      22.155  80.811  12.090  1.00 51.58     0.181 C 
BRANCH  57  62
HETATM   62  O3  SGN C   1      19.537  83.189  10.825  1.00 46.09    -0.391 OA
ATOM     63  H3  SGN C   1      18.730  82.736  11.044  1.00  0.00     0.210 HD
ENDBRANCH  57  62
BRANCH  58  64
HETATM   64  N2  SGN C   1      19.710  81.233   8.718  1.00 48.56    -0.289 N 
ATOM     65  H2  SGN C   1      20.377  81.523   8.003  1.00  0.00     0.175 HD
BRANCH  64  66
HETATM   66  S1  SGN C   1      18.099  81.025   8.406  1.00 47.67     0.205 S 
HETATM   67  O1S SGN C   1      17.977  80.762   6.956  1.00 47.59    -0.578 OA
HETATM   68  O2S SGN C   1      17.459  82.284   8.803  1.00 48.55    -0.578 OA
HETATM   69  O3S SGN C   1      17.653  79.879   9.228  1.00 47.08    -0.578 OA
ENDBRANCH  64  66
ENDBRANCH  58  64
BRANCH  59  70
HETATM   70  O1  SGN C   1      22.254  80.248   9.365  1.00 51.36    -0.369 OA
ATOM     71  H1  SGN C   1      22.234  81.185   9.213  1.00  0.00     0.212 HD
ENDBRANCH  59  70
BRANCH  61  72
HETATM   72  C6  SGN C   1      22.650  80.382  13.449  1.00 55.48     0.227 C 
BRANCH  72  73
HETATM   73  O6  SGN C   1      24.025  80.790  13.613  1.00 61.59    -0.254 OA
BRANCH  73  74
HETATM   74  S2  SGN C   1      24.569  80.750  15.110  1.00 65.98     0.251 S 
HETATM   75  O4S SGN C   1      25.987  80.174  15.060  1.00 65.09    -0.572 OA
HETATM   76  O5S SGN C   1      23.665  79.894  15.856  1.00 65.58    -0.572 OA
HETATM   77  O6S SGN C   1      24.556  82.216  15.645  1.00 65.84    -0.572 OA
ENDBRANCH  73  74
ENDBRANCH  72  73
ENDBRANCH  61  72
ENDBRANCH  55  56
ENDBRANCH   1  55
TORSDOF 27
ENDMDL
MODEL 37
REMARK VINA RESULT:      -5.9      5.825      9.490
REMARK  27 active torsions:
REMARK  status: ('A' for Active; 'I' for Inactive)
REMARK    1  A    between atoms: C1_1  and  O1_2 
REMARK    2  A    between atoms: S1_5  and  N2_7 
REMARK    3  A    between atoms: C2_6  and  N2_7 
REMARK    4  A    between atoms: S2_10  and  O6_22 
REMARK    5  A    between atoms: C3_11  and  O3_12 
REMARK    6  A    between atoms: C4_15  and  O4_16 
REMARK    7  A    between atoms: O4_16  and  C1_24 
REMARK    8  A    between atoms: C5_18  and  C6_21 
REMARK    9  A    between atoms: C6_21  and  O6_22 
REMARK   10  A    between atoms: C2_26  and  O2_27 
REMARK   11  A    between atoms: O2_27  and  S_40 
REMARK   12  A    between atoms: C3_29  and  O3_30 
REMARK   13  A    between atoms: C4_33  and  O4_34 
REMARK   14  A    between atoms: O4_34  and  C1_41 
REMARK   15  A    between atoms: C5_35  and  C6_37 
REMARK   16  A    between atoms: S1_43  and  N2_45 
REMARK   17  A    between atoms: C2_44  and  N2_45 
REMARK   18  A    between atoms: S2_48  and  O6_60 
REMARK   19  A    between atoms: C3_49  and  O3_50 
REMARK   20  A    between atoms: C4_53  and  O4_54 
REMARK   21  A    between atoms: O4_54  and  C1_62 
REMARK   22  A    between atoms: C5_56  and  C6_59 
REMARK   23  A    between atoms: C6_59  and  O6_60 
REMARK   24  A    between atoms: C2_64  and  O2_65 
REMARK   25  A    between atoms: O2_65  and  S_77 
REMARK   26  A    between atoms: C3_67  and  O3_68 
REMARK   27  A    between atoms: C5_72  and  C6_74 
ROOT
HETATM    1  C1  IDS C   2      31.120  72.666  14.926  1.00 40.81     0.294 C 
HETATM    2  C2  IDS C   2      30.929  73.501  13.658  1.00 40.20     0.231 C 
HETATM    3  C3  IDS C   2      30.686  72.608  12.444  1.00 39.01     0.185 C 
HETATM    4  C4  IDS C   2      31.878  71.658  12.209  1.00 37.65     0.195 C 
HETATM    5  C5  IDS C   2      32.688  71.509  13.503  1.00 35.99     0.257 C 
HETATM    6  O5  IDS C   2      31.789  71.419  14.634  1.00 39.00    -0.340 OA
ENDROOT
BRANCH   4   7
HETATM    7  O4  IDS C   2      31.395  70.362  11.775  1.00 35.98    -0.348 OA
BRANCH   7   8
HETATM    8  C1  SGN C   3      31.663  70.020  10.442  1.00 35.40     0.287 C 
HETATM    9  C2  SGN C   3      30.434  69.340   9.812  1.00 33.71     0.182 C 
HETATM   10  C3  SGN C   3      30.225  67.914  10.335  1.00 35.79     0.178 C 
HETATM   11  C4  SGN C   3      31.533  67.105  10.335  1.00 36.62     0.186 C 
HETATM   12  C5  SGN C   3      32.649  67.912  10.987  1.00 39.32     0.181 C 
HETATM   13  O5  SGN C   3      32.797  69.179  10.322  1.00 37.58    -0.349 OA
BRANCH   9  14
HETATM   14  N2  SGN C   3      29.250  70.119  10.100  1.00 29.28    -0.289 N 
ATOM     15  H2  SGN C   3      28.791  70.064  11.009  1.00  0.00     0.175 HD
BRANCH  14  16
HETATM   16  S1  SGN C   3      28.669  71.101   8.906  1.00 27.84     0.205 S 
HETATM   17  O1S SGN C   3      29.689  71.062   7.874  1.00 27.65    -0.578 OA
HETATM   18  O2S SGN C   3      28.538  72.448   9.535  1.00 27.72    -0.578 OA
HETATM   19  O3S SGN C   3      27.352  70.576   8.426  1.00 28.50    -0.578 OA
ENDBRANCH  14  16
ENDBRANCH   9  14
BRANCH  10  20
HETATM   20  O3  SGN C   3      29.242  67.255   9.540  1.00 34.89    -0.391 OA
ATOM     21  H3  SGN C   3      28.730  66.672  10.088  1.00  0.00     0.210 HD
ENDBRANCH  10  20
BRANCH  11  22
HETATM   22  O4  SGN C   3      31.341  65.896  11.091  1.00 37.13    -0.348 OA
BRANCH  22  23
HETATM   23  C1  UAP C   4      31.617  64.720  10.411  1.00 39.64     0.294 C 
HETATM   24  C2  UAP C   4      31.262  63.522  11.273  1.00 38.70     0.228 C 
HETATM   25  C3  UAP C   4      31.656  62.230  10.562  1.00 38.51     0.156 C 
HETATM   26  C4  UAP C   4      31.319  62.222   8.999  1.00 38.14     0.077 C 
HETATM   27  C5  UAP C   4      30.926  63.463   8.478  1.00 38.51     0.228 C 
HETATM   28  O5  UAP C   4      30.817  64.702   9.236  1.00 37.46    -0.343 OA
BRANCH  24  29
HETATM   29  O2  UAP C   4      32.006  63.570  12.533  1.00 40.54    -0.244 OA
BRANCH  29  30
HETATM   30  S   UAP C   4      31.566  62.675  13.785  1.00 40.49     0.252 S 
HETATM   31  O1S UAP C   4      31.893  63.443  14.996  1.00 40.89    -0.572 OA
HETATM   32  O2S UAP C   4      32.340  61.428  13.708  1.00 37.88    -0.572 OA
HETATM   33  O3S UAP C   4      30.120  62.436  13.659  1.00 37.47    -0.572 OA
ENDBRANCH  29  30
ENDBRANCH  24  29
BRANCH  25  34
HETATM   34  O3  UAP C   4      31.000  61.140  11.189  1.00 38.58    -0.393 OA
ATOM     35  H3  UAP C   4      30.110  61.396  11.402  1.00  0.00     0.210 HD
ENDBRANCH  25  34
BRANCH  27  36
HETATM   36  C6  UAP C   4      30.534  63.644   7.052  1.00 37.96     0.203 C 
HETATM   37  O6A UAP C   4      31.212  64.419   6.349  1.00 40.05    -0.646 OA
HETATM   38  O6B UAP C   4      29.542  63.015   6.627  1.00 36.71    -0.646 OA
ENDBRANCH  27  36
ENDBRANCH  22  23
ENDBRANCH  11  22
BRANCH  12  39
HETATM   39  C6  SGN C   3      33.993  67.240  10.962  1.00 42.65     0.227 C 
BRANCH  39  40
HETATM   40  O6  SGN C   3      34.267  66.863  12.329  1.00 51.09    -0.254 OA
BRANCH  40  41
HETATM   41  S2  SGN C   3      35.805  66.786  12.748  1.00 54.80     0.251 S 
HETATM   42  O4S SGN C   3      36.234  65.384  12.598  1.00 54.99    -0.572 OA
HETATM   43  O5S SGN C   3      35.884  67.242  14.168  1.00 53.99    -0.572 OA
HETATM   44  O6S SGN C   3      36.533  67.672  11.848  1.00 55.43    -0.572 OA
ENDBRANCH  40  41
ENDBRANCH  39  40
ENDBRANCH  12  39
ENDBRANCH   7   8
ENDBRANCH   4   7
BRANCH   3  45
HETATM   45  O3  IDS C   2      30.480  73.417  11.294  1.00 39.65    -0.390 OA
ATOM     46  H3  IDS C   2      30.535  74.333  11.537  1.00  0.00     0.210 HD
ENDBRANCH   3  45
BRANCH   5  47
HETATM   47  C6  IDS C   2      33.615  70.302  13.546  1.00 36.10     0.206 C 
HETATM   48  O6A IDS C   2      34.619  70.315  12.801  1.00 32.44    -0.646 OA
HETATM   49  O6B IDS C   2      33.337  69.366  14.333  1.00 33.44    -0.646 OA
ENDBRANCH   5  47
BRANCH   2  50
HETATM   50  O2  IDS C   2      29.776  74.378  13.816  1.00 43.59    -0.244 OA
BRANCH  50  51
HETATM   51  S   IDS C   2      29.959  75.957  13.664  1.00 44.11     0.252 S 
HETATM   52  O1S IDS C   2      30.980  76.376  14.684  1.00 44.48    -0.572 OA
HETATM   53  O2S IDS C   2      28.639  76.572  13.912  1.00 44.29    -0.572 OA
HETATM   54  O3S IDS C   2      30.420  76.198  12.308  1.00 44.74    -0.572 OA
ENDBRANCH  50  51
ENDBRANCH   2  50
BRANCH   1  55
HETATM   55  O4  SGN C   1      31.888  73.377  15.837  1.00 44.73    -0.348 OA
BRANCH  55  56
HETATM   56  C4  SGN C   1      31.786  73.009  17.230  1.00 48.25     0.186 C 
HETATM   57  C3  SGN C   1      33.028  72.213  17.649  1.00 48.43     0.178 C 
HETATM   58  C2  SGN C   1      33.003  71.955  19.155  1.00 48.58     0.181 C 
HETATM   59  C1  SGN C   1      32.816  73.249  19.944  1.00 50.40     0.283 C 
HETATM   60  O5  SGN C   1      31.639  73.933  19.498  1.00 50.82    -0.349 OA
HETATM   61  C5  SGN C   1      31.682  74.278  18.094  1.00 51.58     0.181 C 
BRANCH  57  62
HETATM   62  O3  SGN C   1      33.062  70.972  16.961  1.00 46.09    -0.391 OA
ATOM     63  H3  SGN C   1      33.965  70.696  16.857  1.00  0.00     0.210 HD
ENDBRANCH  57  62
BRANCH  58  64
HETATM   64  N2  SGN C   1      34.224  71.300  19.576  1.00 48.56    -0.289 N 
ATOM     65  H2  SGN C   1      35.088  71.810  19.758  1.00  0.00     0.175 HD
BRANCH  64  66
HETATM   66  S1  SGN C   1      34.103  69.658  19.739  1.00 47.67     0.205 S 
HETATM   67  O1S SGN C   1      34.890  69.062  18.637  1.00 47.59    -0.578 OA
HETATM   68  O2S SGN C   1      32.671  69.359  19.631  1.00 48.55    -0.578 OA
HETATM   69  O3S SGN C   1      34.653  69.323  21.071  1.00 47.08    -0.578 OA
ENDBRANCH  64  66
ENDBRANCH  58  64
BRANCH  59  70
HETATM   70  O1  SGN C   1      33.911  74.080  19.752  1.00 51.36    -0.369 OA
ATOM     71  H1  SGN C   1      33.663  74.822  19.213  1.00  0.00     0.212 HD
ENDBRANCH  59  70
BRANCH  61  72
HETATM   72  C6  SGN C   1      30.435  75.076  17.807  1.00 55.48     0.227 C 
BRANCH  72  73
HETATM   73  O6  SGN C   1      30.346  76.182  18.731  1.00 61.59    -0.254 OA
BRANCH  73  74
HETATM   74  S2  SGN C   1      28.928  76.363  19.435  1.00 65.98     0.251 S 
HETATM   75  O4S SGN C   1      27.861  76.195  18.351  1.00 65.09    -0.572 OA
HETATM   76  O5S SGN C   1      28.916  77.698  20.003  1.00 65.58    -0.572 OA
HETATM   77  O6S SGN C   1      28.817  75.262  20.536  1.00 65.84    -0.572 OA
ENDBRANCH  73  74
ENDBRANCH  72  73
ENDBRANCH  61  72
ENDBRANCH  55  56
ENDBRANCH   1  55
TORSDOF 27
ENDMDL
MODEL 38
REMARK VINA RESULT:      -5.8     13.137     17.461
REMARK  27 active torsions:
REMARK  status: ('A' for Active; 'I' for Inactive)
REMARK    1  A    between atoms: C1_1  and  O1_2 
REMARK    2  A    between atoms: S1_5  and  N2_7 
REMARK    3  A    between atoms: C2_6  and  N2_7 
REMARK    4  A    between atoms: S2_10  and  O6_22 
REMARK    5  A    between atoms: C3_11  and  O3_12 
REMARK    6  A    between atoms: C4_15  and  O4_16 
REMARK    7  A    between atoms: O4_16  and  C1_24 
REMARK    8  A    between atoms: C5_18  and  C6_21 
REMARK    9  A    between atoms: C6_21  and  O6_22 
REMARK   10  A    between atoms: C2_26  and  O2_27 
REMARK   11  A    between atoms: O2_27  and  S_40 
REMARK   12  A    between atoms: C3_29  and  O3_30 
REMARK   13  A    between atoms: C4_33  and  O4_34 
REMARK   14  A    between atoms: O4_34  and  C1_41 
REMARK   15  A    between atoms: C5_35  and  C6_37 
REMARK   16  A    between atoms: S1_43  and  N2_45 
REMARK   17  A    between atoms: C2_44  and  N2_45 
REMARK   18  A    between atoms: S2_48  and  O6_60 
REMARK   19  A    between atoms: C3_49  and  O3_50 
REMARK   20  A    between atoms: C4_53  and  O4_54 
REMARK   21  A    between atoms: O4_54  and  C1_62 
REMARK   22  A    between atoms: C5_56  and  C6_59 
REMARK   23  A    between atoms: C6_59  and  O6_60 
REMARK   24  A    between atoms: C2_64  and  O2_65 
REMARK   25  A    between atoms: O2_65  and  S_77 
REMARK   26  A    between atoms: C3_67  and  O3_68 
REMARK   27  A    between atoms: C5_72  and  C6_74 
ROOT
HETATM    1  C1  IDS C   2      28.148  87.814  14.215  1.00 40.81     0.294 C 
HETATM    2  C2  IDS C   2      28.188  86.911  15.450  1.00 40.20     0.231 C 
HETATM    3  C3  IDS C   2      28.630  85.497  15.082  1.00 39.01     0.185 C 
HETATM    4  C4  IDS C   2      27.661  84.862  14.065  1.00 37.65     0.195 C 
HETATM    5  C5  IDS C   2      26.874  85.961  13.339  1.00 35.99     0.257 C 
HETATM    6  O5  IDS C   2      27.753  87.072  13.039  1.00 39.00    -0.340 OA
ENDROOT
BRANCH   4   7
HETATM    7  O4  IDS C   2      28.406  84.070  13.106  1.00 35.98    -0.348 OA
BRANCH   7   8
HETATM    8  C1  SGN C   3      28.600  82.722  13.440  1.00 35.40     0.287 C 
HETATM    9  C2  SGN C   3      29.844  82.172  12.718  1.00 33.71     0.182 C 
HETATM   10  C3  SGN C   3      29.602  81.962  11.219  1.00 35.79     0.178 C 
HETATM   11  C4  SGN C   3      28.273  81.237  10.947  1.00 36.62     0.186 C 
HETATM   12  C5  SGN C   3      27.146  81.897  11.732  1.00 39.32     0.181 C 
HETATM   13  O5  SGN C   3      27.470  81.925  13.133  1.00 37.58    -0.349 OA
BRANCH   9  14
HETATM   14  N2  SGN C   3      30.947  83.092  12.888  1.00 29.28    -0.289 N 
ATOM     15  H2  SGN C   3      30.930  84.019  12.463  1.00  0.00     0.175 HD
BRANCH  14  16
HETATM   16  S1  SGN C   3      32.233  82.587  13.792  1.00 27.84     0.205 S 
HETATM   17  O1S SGN C   3      33.285  83.542  13.494  1.00 27.65    -0.578 OA
HETATM   18  O2S SGN C   3      32.545  81.213  13.297  1.00 27.72    -0.578 OA
HETATM   19  O3S SGN C   3      31.855  82.589  15.240  1.00 28.50    -0.578 OA
ENDBRANCH  14  16
ENDBRANCH   9  14
BRANCH  10  20
HETATM   20  O3  SGN C   3      30.685  81.223  10.661  1.00 34.89    -0.391 OA
ATOM     21  H3  SGN C   3      30.400  80.336  10.473  1.00  0.00     0.210 HD
ENDBRANCH  10  20
BRANCH  11  22
HETATM   22  O4  SGN C   3      27.965  81.324   9.544  1.00 37.13    -0.348 OA
BRANCH  22  23
HETATM   23  C1  UAP C   4      28.017  80.126   8.850  1.00 39.64     0.294 C 
HETATM   24  C2  UAP C   4      26.969  80.113   7.752  1.00 38.70     0.228 C 
HETATM   25  C3  UAP C   4      26.962  78.757   7.051  1.00 38.51     0.156 C 
HETATM   26  C4  UAP C   4      28.420  78.163   6.775  1.00 38.14     0.077 C 
HETATM   27  C5  UAP C   4      29.464  78.855   7.406  1.00 38.51     0.228 C 
HETATM   28  O5  UAP C   4      29.308  80.022   8.262  1.00 37.46    -0.343 OA
BRANCH  24  29
HETATM   29  O2  UAP C   4      25.637  80.313   8.325  1.00 40.54    -0.244 OA
BRANCH  29  30
HETATM   30  S   UAP C   4      24.633  81.402   7.718  1.00 40.49     0.252 S 
HETATM   31  O1S UAP C   4      23.275  80.854   7.853  1.00 40.89    -0.572 OA
HETATM   32  O2S UAP C   4      25.006  81.584   6.308  1.00 37.88    -0.572 OA
HETATM   33  O3S UAP C   4      24.808  82.636   8.499  1.00 37.47    -0.572 OA
ENDBRANCH  29  30
ENDBRANCH  24  29
BRANCH  25  34
HETATM   34  O3  UAP C   4      26.264  78.876   5.822  1.00 38.58    -0.393 OA
ATOM     35  H3  UAP C   4      25.437  79.317   5.978  1.00  0.00     0.210 HD
ENDBRANCH  25  34
BRANCH  27  36
HETATM   36  C6  UAP C   4      30.894  78.475   7.235  1.00 37.96     0.203 C 
HETATM   37  O6A UAP C   4      31.156  77.302   6.904  1.00 40.05    -0.646 OA
HETATM   38  O6B UAP C   4      31.766  79.348   7.433  1.00 36.71    -0.646 OA
ENDBRANCH  27  36
ENDBRANCH  22  23
ENDBRANCH  11  22
BRANCH  12  39
HETATM   39  C6  SGN C   3      25.816  81.209  11.600  1.00 42.65     0.227 C 
BRANCH  39  40
HETATM   40  O6  SGN C   3      26.072  79.811  11.856  1.00 51.09    -0.254 OA
BRANCH  40  41
HETATM   41  S2  SGN C   3      25.134  79.106  12.938  1.00 54.80     0.251 S 
HETATM   42  O4S SGN C   3      25.905  79.005  14.191  1.00 54.99    -0.572 OA
HETATM   43  O5S SGN C   3      24.787  77.761  12.390  1.00 53.99    -0.572 OA
HETATM   44  O6S SGN C   3      23.959  79.953  13.094  1.00 55.43    -0.572 OA
ENDBRANCH  40  41
ENDBRANCH  39  40
ENDBRANCH  12  39
ENDBRANCH   7   8
ENDBRANCH   4   7
BRANCH   3  45
HETATM   45  O3  IDS C   2      28.688  84.698  16.256  1.00 39.65    -0.390 OA
ATOM     46  H3  IDS C   2      27.866  84.767  16.727  1.00  0.00     0.210 HD
ENDBRANCH   3  45
BRANCH   5  47
HETATM   47  C6  IDS C   2      26.212  85.526  12.038  1.00 36.10     0.206 C 
HETATM   48  O6A IDS C   2      26.705  85.946  10.968  1.00 32.44    -0.646 OA
HETATM   49  O6B IDS C   2      25.221  84.760  12.102  1.00 33.44    -0.646 OA
ENDBRANCH   5  47
BRANCH   2  50
HETATM   50  O2  IDS C   2      29.134  87.447  16.420  1.00 43.59    -0.244 OA
BRANCH  50  51
HETATM   51  S   IDS C   2      28.626  87.854  17.877  1.00 44.11     0.252 S 
HETATM   52  O1S IDS C   2      28.929  86.694  18.782  1.00 44.48    -0.572 OA
HETATM   53  O2S IDS C   2      27.174  88.114  17.773  1.00 44.29    -0.572 OA
HETATM   54  O3S IDS C   2      29.360  89.046  18.262  1.00 44.74    -0.572 OA
ENDBRANCH  50  51
ENDBRANCH   2  50
BRANCH   1  55
HETATM   55  O4  SGN C   1      27.234  88.838  14.419  1.00 44.73    -0.348 OA
BRANCH  55  56
HETATM   56  C4  SGN C   1      26.890  89.665  13.286  1.00 48.25     0.186 C 
HETATM   57  C3  SGN C   1      25.371  89.872  13.238  1.00 48.43     0.178 C 
HETATM   58  C2  SGN C   1      25.013  90.870  12.137  1.00 48.58     0.181 C 
HETATM   59  C1  SGN C   1      25.800  92.171  12.280  1.00 50.40     0.283 C 
HETATM   60  O5  SGN C   1      27.206  91.896  12.316  1.00 50.82    -0.349 OA
HETATM   61  C5  SGN C   1      27.585  91.031  13.411  1.00 51.58     0.181 C 
BRANCH  57  62
HETATM   62  O3  SGN C   1      24.722  88.637  12.980  1.00 46.09    -0.391 OA
ATOM     63  H3  SGN C   1      24.559  88.557  12.047  1.00  0.00     0.210 HD
ENDBRANCH  57  62
BRANCH  58  64
HETATM   64  N2  SGN C   1      23.593  91.155  12.156  1.00 48.56    -0.289 N 
ATOM     65  H2  SGN C   1      22.978  90.845  12.908  1.00  0.00     0.175 HD
BRANCH  64  66
HETATM   66  S1  SGN C   1      23.049  92.026  10.858  1.00 47.67     0.205 S 
HETATM   67  O1S SGN C   1      23.948  91.709   9.727  1.00 47.59    -0.578 OA
HETATM   68  O2S SGN C   1      23.136  93.431  11.267  1.00 48.55    -0.578 OA
HETATM   69  O3S SGN C   1      21.657  91.592  10.611  1.00 47.08    -0.578 OA
ENDBRANCH  64  66
ENDBRANCH  58  64
BRANCH  59  70
HETATM   70  O1  SGN C   1      25.444  92.811  13.458  1.00 51.36    -0.369 OA
ATOM     71  H1  SGN C   1      24.585  92.516  13.739  1.00  0.00     0.212 HD
ENDBRANCH  59  70
BRANCH  61  72
HETATM   72  C6  SGN C   1      29.089  90.924  13.376  1.00 55.48     0.227 C 
BRANCH  72  73
HETATM   73  O6  SGN C   1      29.595  91.619  12.216  1.00 61.59    -0.254 OA
BRANCH  73  74
HETATM   74  S2  SGN C   1      31.028  92.291  12.402  1.00 65.98     0.251 S 
HETATM   75  O4S SGN C   1      31.557  91.856  13.771  1.00 65.09    -0.572 OA
HETATM   76  O5S SGN C   1      30.824  93.726  12.333  1.00 65.58    -0.572 OA
HETATM   77  O6S SGN C   1      31.932  91.776  11.238  1.00 65.84    -0.572 OA
ENDBRANCH  73  74
ENDBRANCH  72  73
ENDBRANCH  61  72
ENDBRANCH  55  56
ENDBRANCH   1  55
TORSDOF 27
ENDMDL
MODEL 39
REMARK VINA RESULT:      -5.8      3.240     11.386
REMARK  27 active torsions:
REMARK  status: ('A' for Active; 'I' for Inactive)
REMARK    1  A    between atoms: C1_1  and  O1_2 
REMARK    2  A    between atoms: S1_5  and  N2_7 
REMARK    3  A    between atoms: C2_6  and  N2_7 
REMARK    4  A    between atoms: S2_10  and  O6_22 
REMARK    5  A    between atoms: C3_11  and  O3_12 
REMARK    6  A    between atoms: C4_15  and  O4_16 
REMARK    7  A    between atoms: O4_16  and  C1_24 
REMARK    8  A    between atoms: C5_18  and  C6_21 
REMARK    9  A    between atoms: C6_21  and  O6_22 
REMARK   10  A    between atoms: C2_26  and  O2_27 
REMARK   11  A    between atoms: O2_27  and  S_40 
REMARK   12  A    between atoms: C3_29  and  O3_30 
REMARK   13  A    between atoms: C4_33  and  O4_34 
REMARK   14  A    between atoms: O4_34  and  C1_41 
REMARK   15  A    between atoms: C5_35  and  C6_37 
REMARK   16  A    between atoms: S1_43  and  N2_45 
REMARK   17  A    between atoms: C2_44  and  N2_45 
REMARK   18  A    between atoms: S2_48  and  O6_60 
REMARK   19  A    between atoms: C3_49  and  O3_50 
REMARK   20  A    between atoms: C4_53  and  O4_54 
REMARK   21  A    between atoms: O4_54  and  C1_62 
REMARK   22  A    between atoms: C5_56  and  C6_59 
REMARK   23  A    between atoms: C6_59  and  O6_60 
REMARK   24  A    between atoms: C2_64  and  O2_65 
REMARK   25  A    between atoms: O2_65  and  S_77 
REMARK   26  A    between atoms: C3_67  and  O3_68 
REMARK   27  A    between atoms: C5_72  and  C6_74 
ROOT
HETATM    1  C1  IDS C   2      36.113  71.488  21.457  1.00 40.81     0.294 C 
HETATM    2  C2  IDS C   2      34.770  71.258  22.155  1.00 40.20     0.231 C 
HETATM    3  C3  IDS C   2      33.608  71.441  21.182  1.00 39.01     0.185 C 
HETATM    4  C4  IDS C   2      33.598  72.867  20.595  1.00 37.65     0.195 C 
HETATM    5  C5  IDS C   2      34.990  73.496  20.731  1.00 35.99     0.257 C 
HETATM    6  O5  IDS C   2      36.003  72.505  20.437  1.00 39.00    -0.340 OA
ENDROOT
BRANCH   4   7
HETATM    7  O4  IDS C   2      33.208  72.821  19.200  1.00 35.98    -0.348 OA
BRANCH   7   8
HETATM    8  C1  SGN C   3      31.849  72.583  18.947  1.00 35.40     0.287 C 
HETATM    9  C2  SGN C   3      31.604  72.471  17.431  1.00 33.71     0.182 C 
HETATM   10  C3  SGN C   3      31.693  73.829  16.725  1.00 35.79     0.178 C 
HETATM   11  C4  SGN C   3      30.901  74.917  17.470  1.00 36.62     0.186 C 
HETATM   12  C5  SGN C   3      31.252  74.897  18.953  1.00 39.32     0.181 C 
HETATM   13  O5  SGN C   3      31.017  73.587  19.499  1.00 37.58    -0.349 OA
BRANCH   9  14
HETATM   14  N2  SGN C   3      32.582  71.578  16.849  1.00 29.28    -0.289 N 
ATOM     15  H2  SGN C   3      33.380  71.939  16.327  1.00  0.00     0.175 HD
BRANCH  14  16
HETATM   16  S1  SGN C   3      32.360  69.955  17.059  1.00 27.84     0.205 S 
HETATM   17  O1S SGN C   3      33.259  69.601  18.141  1.00 27.65    -0.578 OA
HETATM   18  O2S SGN C   3      32.750  69.335  15.758  1.00 27.72    -0.578 OA
HETATM   19  O3S SGN C   3      30.926  69.689  17.399  1.00 28.50    -0.578 OA
ENDBRANCH  14  16
ENDBRANCH   9  14
BRANCH  10  20
HETATM   20  O3  SGN C   3      31.211  73.702  15.389  1.00 34.89    -0.391 OA
ATOM     21  H3  SGN C   3      31.863  73.258  14.859  1.00  0.00     0.210 HD
ENDBRANCH  10  20
BRANCH  11  22
HETATM   22  O4  SGN C   3      31.250  76.206  16.935  1.00 37.13    -0.348 OA
BRANCH  22  23
HETATM   23  C1  UAP C   4      31.595  76.217  15.592  1.00 39.64     0.294 C 
HETATM   24  C2  UAP C   4      30.515  76.909  14.781  1.00 38.70     0.228 C 
HETATM   25  C3  UAP C   4      30.849  76.835  13.294  1.00 38.51     0.156 C 
HETATM   26  C4  UAP C   4      32.391  77.095  12.963  1.00 38.14     0.077 C 
HETATM   27  C5  UAP C   4      33.234  77.127  14.083  1.00 38.51     0.228 C 
HETATM   28  O5  UAP C   4      32.811  76.943  15.464  1.00 37.46    -0.343 OA
BRANCH  24  29
HETATM   29  O2  UAP C   4      29.231  76.234  14.973  1.00 40.54    -0.244 OA
BRANCH  29  30
HETATM   30  S   UAP C   4      27.911  77.061  15.345  1.00 40.49     0.252 S 
HETATM   31  O1S UAP C   4      27.076  76.183  16.178  1.00 40.89    -0.572 OA
HETATM   32  O2S UAP C   4      27.249  77.396  14.076  1.00 37.88    -0.572 OA
HETATM   33  O3S UAP C   4      28.345  78.262  16.075  1.00 37.47    -0.572 OA
ENDBRANCH  29  30
ENDBRANCH  24  29
BRANCH  25  34
HETATM   34  O3  UAP C   4      30.054  77.780  12.594  1.00 38.58    -0.393 OA
ATOM     35  H3  UAP C   4      29.814  77.417  11.750  1.00  0.00     0.210 HD
ENDBRANCH  25  34
BRANCH  27  36
HETATM   36  C6  UAP C   4      34.696  77.397  13.978  1.00 37.96     0.203 C 
HETATM   37  O6A UAP C   4      35.483  76.443  14.140  1.00 40.05    -0.646 OA
HETATM   38  O6B UAP C   4      35.065  78.565  13.734  1.00 36.71    -0.646 OA
ENDBRANCH  27  36
ENDBRANCH  22  23
ENDBRANCH  11  22
BRANCH  12  39
HETATM   39  C6  SGN C   3      30.467  75.871  19.786  1.00 42.65     0.227 C 
BRANCH  39  40
HETATM   40  O6  SGN C   3      29.490  75.079  20.496  1.00 51.09    -0.254 OA
BRANCH  40  41
HETATM   41  S2  SGN C   3      28.308  75.882  21.206  1.00 54.80     0.251 S 
HETATM   42  O4S SGN C   3      27.339  74.891  21.708  1.00 54.99    -0.572 OA
HETATM   43  O5S SGN C   3      27.707  76.767  20.164  1.00 53.99    -0.572 OA
HETATM   44  O6S SGN C   3      28.909  76.647  22.292  1.00 55.43    -0.572 OA
ENDBRANCH  40  41
ENDBRANCH  39  40
ENDBRANCH  12  39
ENDBRANCH   7   8
ENDBRANCH   4   7
BRANCH   3  45
HETATM   45  O3  IDS C   2      32.382  71.186  21.854  1.00 39.65    -0.390 OA
ATOM     46  H3  IDS C   2      31.657  71.373  21.271  1.00  0.00     0.210 HD
ENDBRANCH   3  45
BRANCH   5  47
HETATM   47  C6  IDS C   2      35.241  74.701  19.834  1.00 36.10     0.206 C 
HETATM   48  O6A IDS C   2      34.570  75.734  20.049  1.00 32.44    -0.646 OA
HETATM   49  O6B IDS C   2      36.114  74.605  18.938  1.00 33.44    -0.646 OA
ENDBRANCH   5  47
BRANCH   2  50
HETATM   50  O2  IDS C   2      34.716  69.900  22.680  1.00 43.59    -0.244 OA
BRANCH  50  51
HETATM   51  S   IDS C   2      34.599  69.667  24.254  1.00 44.11     0.252 S 
HETATM   52  O1S IDS C   2      35.995  69.727  24.807  1.00 44.48    -0.572 OA
HETATM   53  O2S IDS C   2      33.978  68.340  24.452  1.00 44.29    -0.572 OA
HETATM   54  O3S IDS C   2      33.765  70.734  24.777  1.00 44.74    -0.572 OA
ENDBRANCH  50  51
ENDBRANCH   2  50
BRANCH   1  55
HETATM   55  O4  SGN C   1      37.055  71.898  22.390  1.00 44.73    -0.348 OA
BRANCH  55  56
HETATM   56  C4  SGN C   1      38.433  71.535  22.155  1.00 48.25     0.186 C 
HETATM   57  C3  SGN C   1      39.355  72.429  22.992  1.00 48.43     0.178 C 
HETATM   58  C2  SGN C   1      40.802  71.952  22.869  1.00 48.58     0.181 C 
HETATM   59  C1  SGN C   1      40.933  70.466  23.199  1.00 50.40     0.283 C 
HETATM   60  O5  SGN C   1      40.045  69.699  22.377  1.00 50.82    -0.349 OA
HETATM   61  C5  SGN C   1      38.656  70.065  22.550  1.00 51.58     0.181 C 
BRANCH  57  62
HETATM   62  O3  SGN C   1      39.265  73.772  22.543  1.00 46.09    -0.391 OA
ATOM     63  H3  SGN C   1      38.378  73.946  22.249  1.00  0.00     0.210 HD
ENDBRANCH  57  62
BRANCH  58  64
HETATM   64  N2  SGN C   1      41.664  72.722  23.742  1.00 48.56    -0.289 N 
ATOM     65  H2  SGN C   1      41.618  72.657  24.759  1.00  0.00     0.175 HD
BRANCH  64  66
HETATM   66  S1  SGN C   1      42.729  73.714  22.957  1.00 47.67     0.205 S 
HETATM   67  O1S SGN C   1      43.109  73.024  21.704  1.00 47.59    -0.578 OA
HETATM   68  O2S SGN C   1      43.863  73.874  23.873  1.00 48.55    -0.578 OA
HETATM   69  O3S SGN C   1      42.018  74.986  22.707  1.00 47.08    -0.578 OA
ENDBRANCH  64  66
ENDBRANCH  58  64
BRANCH  59  70
HETATM   70  O1  SGN C   1      40.607  70.247  24.529  1.00 51.36    -0.369 OA
ATOM     71  H1  SGN C   1      39.994  70.910  24.825  1.00  0.00     0.212 HD
ENDBRANCH  59  70
BRANCH  61  72
HETATM   72  C6  SGN C   1      37.849  69.108  21.708  1.00 55.48     0.227 C 
BRANCH  72  73
HETATM   73  O6  SGN C   1      37.465  67.968  22.508  1.00 61.59    -0.254 OA
BRANCH  73  74
HETATM   74  S2  SGN C   1      36.778  66.778  21.702  1.00 65.98     0.251 S 
HETATM   75  O4S SGN C   1      36.241  67.368  20.396  1.00 65.09    -0.572 OA
HETATM   76  O5S SGN C   1      35.710  66.270  22.544  1.00 65.58    -0.572 OA
HETATM   77  O6S SGN C   1      37.878  65.700  21.445  1.00 65.84    -0.572 OA
ENDBRANCH  73  74
ENDBRANCH  72  73
ENDBRANCH  61  72
ENDBRANCH  55  56
ENDBRANCH   1  55
TORSDOF 27
ENDMDL
MODEL 40
REMARK VINA RESULT:      -5.7      4.028      7.815
REMARK  27 active torsions:
REMARK  status: ('A' for Active; 'I' for Inactive)
REMARK    1  A    between atoms: C1_1  and  O1_2 
REMARK    2  A    between atoms: S1_5  and  N2_7 
REMARK    3  A    between atoms: C2_6  and  N2_7 
REMARK    4  A    between atoms: S2_10  and  O6_22 
REMARK    5  A    between atoms: C3_11  and  O3_12 
REMARK    6  A    between atoms: C4_15  and  O4_16 
REMARK    7  A    between atoms: O4_16  and  C1_24 
REMARK    8  A    between atoms: C5_18  and  C6_21 
REMARK    9  A    between atoms: C6_21  and  O6_22 
REMARK   10  A    between atoms: C2_26  and  O2_27 
REMARK   11  A    between atoms: O2_27  and  S_40 
REMARK   12  A    between atoms: C3_29  and  O3_30 
REMARK   13  A    between atoms: C4_33  and  O4_34 
REMARK   14  A    between atoms: O4_34  and  C1_41 
REMARK   15  A    between atoms: C5_35  and  C6_37 
REMARK   16  A    between atoms: S1_43  and  N2_45 
REMARK   17  A    between atoms: C2_44  and  N2_45 
REMARK   18  A    between atoms: S2_48  and  O6_60 
REMARK   19  A    between atoms: C3_49  and  O3_50 
REMARK   20  A    between atoms: C4_53  and  O4_54 
REMARK   21  A    between atoms: O4_54  and  C1_62 
REMARK   22  A    between atoms: C5_56  and  C6_59 
REMARK   23  A    between atoms: C6_59  and  O6_60 
REMARK   24  A    between atoms: C2_64  and  O2_65 
REMARK   25  A    between atoms: O2_65  and  S_77 
REMARK   26  A    between atoms: C3_67  and  O3_68 
REMARK   27  A    between atoms: C5_72  and  C6_74 
ROOT
HETATM    1  C1  IDS C   2      31.758  73.389  13.471  1.00 40.81     0.294 C 
HETATM    2  C2  IDS C   2      31.247  74.490  14.404  1.00 40.20     0.231 C 
HETATM    3  C3  IDS C   2      32.066  74.542  15.691  1.00 39.01     0.185 C 
HETATM    4  C4  IDS C   2      31.985  73.204  16.452  1.00 37.65     0.195 C 
HETATM    5  C5  IDS C   2      31.571  72.082  15.490  1.00 35.99     0.257 C 
HETATM    6  O5  IDS C   2      32.246  72.255  14.221  1.00 39.00    -0.340 OA
ENDROOT
BRANCH   4   7
HETATM    7  O4  IDS C   2      33.272  72.898  17.046  1.00 35.98    -0.348 OA
BRANCH   7   8
HETATM    8  C1  SGN C   3      33.665  73.714  18.117  1.00 35.40     0.287 C 
HETATM    9  C2  SGN C   3      34.897  73.112  18.816  1.00 33.71     0.182 C 
HETATM   10  C3  SGN C   3      34.549  71.868  19.642  1.00 35.79     0.178 C 
HETATM   11  C4  SGN C   3      33.303  72.090  20.517  1.00 36.62     0.186 C 
HETATM   12  C5  SGN C   3      32.178  72.689  19.683  1.00 39.32     0.181 C 
HETATM   13  O5  SGN C   3      32.621  73.905  19.056  1.00 37.58    -0.349 OA
BRANCH   9  14
HETATM   14  N2  SGN C   3      35.886  72.750  17.824  1.00 29.28    -0.289 N 
ATOM     15  H2  SGN C   3      35.679  72.061  17.101  1.00  0.00     0.175 HD
BRANCH  14  16
HETATM   16  S1  SGN C   3      37.359  73.491  17.905  1.00 27.84     0.205 S 
HETATM   17  O1S SGN C   3      38.202  72.727  17.004  1.00 27.65    -0.578 OA
HETATM   18  O2S SGN C   3      37.781  73.369  19.332  1.00 27.72    -0.578 OA
HETATM   19  O3S SGN C   3      37.222  74.920  17.482  1.00 28.50    -0.578 OA
ENDBRANCH  14  16
ENDBRANCH   9  14
BRANCH  10  20
HETATM   20  O3  SGN C   3      35.663  71.513  20.458  1.00 34.89    -0.391 OA
ATOM     21  H3  SGN C   3      36.361  72.146  20.334  1.00  0.00     0.210 HD
ENDBRANCH  10  20
BRANCH  11  22
HETATM   22  O4  SGN C   3      32.862  70.824  21.040  1.00 37.13    -0.348 OA
BRANCH  22  23
HETATM   23  C1  UAP C   4      33.722  69.760  20.823  1.00 39.64     0.294 C 
HETATM   24  C2  UAP C   4      34.064  69.087  22.140  1.00 38.70     0.228 C 
HETATM   25  C3  UAP C   4      35.087  67.978  21.912  1.00 38.51     0.156 C 
HETATM   26  C4  UAP C   4      34.804  67.094  20.610  1.00 38.14     0.077 C 
HETATM   27  C5  UAP C   4      33.807  67.600  19.762  1.00 38.51     0.228 C 
HETATM   28  O5  UAP C   4      33.054  68.827  19.983  1.00 37.46    -0.343 OA
BRANCH  24  29
HETATM   29  O2  UAP C   4      34.668  70.055  23.057  1.00 40.54    -0.244 OA
BRANCH  29  30
HETATM   30  S   UAP C   4      34.774  69.750  24.625  1.00 40.49     0.252 S 
HETATM   31  O1S UAP C   4      36.157  69.325  24.886  1.00 40.89    -0.572 OA
HETATM   32  O2S UAP C   4      33.813  68.676  24.915  1.00 37.88    -0.572 OA
HETATM   33  O3S UAP C   4      34.439  70.997  25.331  1.00 37.47    -0.572 OA
ENDBRANCH  29  30
ENDBRANCH  24  29
BRANCH  25  34
HETATM   34  O3  UAP C   4      35.116  67.135  23.053  1.00 38.58    -0.393 OA
ATOM     35  H3  UAP C   4      35.398  67.642  23.804  1.00  0.00     0.210 HD
ENDBRANCH  25  34
BRANCH  27  36
HETATM   36  C6  UAP C   4      33.377  66.896  18.523  1.00 37.96     0.203 C 
HETATM   37  O6A UAP C   4      33.367  65.649  18.528  1.00 40.05    -0.646 OA
HETATM   38  O6B UAP C   4      33.049  67.586  17.534  1.00 36.71    -0.646 OA
ENDBRANCH  27  36
ENDBRANCH  22  23
ENDBRANCH  11  22
BRANCH  12  39
HETATM   39  C6  SGN C   3      30.939  73.022  20.467  1.00 42.65     0.227 C 
BRANCH  39  40
HETATM   40  O6  SGN C   3      30.139  73.854  19.599  1.00 51.09    -0.254 OA
BRANCH  40  41
HETATM   41  S2  SGN C   3      29.564  75.198  20.239  1.00 54.80     0.251 S 
HETATM   42  O4S SGN C   3      28.912  75.958  19.157  1.00 54.99    -0.572 OA
HETATM   43  O5S SGN C   3      30.733  75.935  20.806  1.00 53.99    -0.572 OA
HETATM   44  O6S SGN C   3      28.614  74.803  21.270  1.00 55.43    -0.572 OA
ENDBRANCH  40  41
ENDBRANCH  39  40
ENDBRANCH  12  39
ENDBRANCH   7   8
ENDBRANCH   4   7
BRANCH   3  45
HETATM   45  O3  IDS C   2      31.586  75.596  16.516  1.00 39.65    -0.390 OA
ATOM     46  H3  IDS C   2      31.010  75.239  17.181  1.00  0.00     0.210 HD
ENDBRANCH   3  45
BRANCH   5  47
HETATM   47  C6  IDS C   2      31.862  70.671  15.985  1.00 36.10     0.206 C 
HETATM   48  O6A IDS C   2      31.361  70.325  17.077  1.00 32.44    -0.646 OA
HETATM   49  O6B IDS C   2      32.573  69.924  15.270  1.00 33.44    -0.646 OA
ENDBRANCH   5  47
BRANCH   2  50
HETATM   50  O2  IDS C   2      31.355  75.784  13.742  1.00 43.59    -0.244 OA
BRANCH  50  51
HETATM   51  S   IDS C   2      30.048  76.677  13.537  1.00 44.11     0.252 S 
HETATM   52  O1S IDS C   2      28.874  75.740  13.564  1.00 44.48    -0.572 OA
HETATM   53  O2S IDS C   2      30.188  77.358  12.233  1.00 44.29    -0.572 OA
HETATM   54  O3S IDS C   2      30.008  77.624  14.637  1.00 44.74    -0.572 OA
ENDBRANCH  50  51
ENDBRANCH   2  50
BRANCH   1  55
HETATM   55  O4  SGN C   1      30.725  72.964  12.648  1.00 44.73    -0.348 OA
BRANCH  55  56
HETATM   56  C4  SGN C   1      31.037  71.983  11.634  1.00 48.25     0.186 C 
HETATM   57  C3  SGN C   1      30.140  70.752  11.811  1.00 48.43     0.178 C 
HETATM   58  C2  SGN C   1      30.353  69.777  10.653  1.00 48.58     0.181 C 
HETATM   59  C1  SGN C   1      30.181  70.466   9.300  1.00 50.40     0.283 C 
HETATM   60  O5  SGN C   1      31.051  71.601   9.211  1.00 50.82    -0.349 OA
HETATM   61  C5  SGN C   1      30.800  72.587  10.240  1.00 51.58     0.181 C 
BRANCH  57  62
HETATM   62  O3  SGN C   1      30.447  70.101  13.033  1.00 46.09    -0.391 OA
ATOM     63  H3  SGN C   1      29.713  69.555  13.291  1.00  0.00     0.210 HD
ENDBRANCH  57  62
BRANCH  58  64
HETATM   64  N2  SGN C   1      29.432  68.664  10.753  1.00 48.56    -0.289 N 
ATOM     65  H2  SGN C   1      28.424  68.789  10.842  1.00  0.00     0.175 HD
BRANCH  64  66
HETATM   66  S1  SGN C   1      30.148  67.173  10.710  1.00 47.67     0.205 S 
HETATM   67  O1S SGN C   1      30.052  66.695   9.313  1.00 47.59    -0.578 OA
HETATM   68  O2S SGN C   1      29.376  66.343  11.640  1.00 48.55    -0.578 OA
HETATM   69  O3S SGN C   1      31.548  67.363  11.146  1.00 47.08    -0.578 OA
ENDBRANCH  64  66
ENDBRANCH  58  64
BRANCH  59  70
HETATM   70  O1  SGN C   1      28.871  70.898   9.154  1.00 51.36    -0.369 OA
ATOM     71  H1  SGN C   1      28.591  71.353   9.939  1.00  0.00     0.212 HD
ENDBRANCH  59  70
BRANCH  61  72
HETATM   72  C6  SGN C   1      31.711  73.754   9.949  1.00 55.48     0.227 C 
BRANCH  72  73
HETATM   73  O6  SGN C   1      33.084  73.357  10.150  1.00 61.59    -0.254 OA
BRANCH  73  74
HETATM   74  S2  SGN C   1      34.067  74.525  10.607  1.00 65.98     0.251 S 
HETATM   75  O4S SGN C   1      34.972  74.846   9.415  1.00 65.09    -0.572 OA
HETATM   76  O5S SGN C   1      34.822  74.012  11.736  1.00 65.58    -0.572 OA
HETATM   77  O6S SGN C   1      33.178  75.743  11.008  1.00 65.84    -0.572 OA
ENDBRANCH  73  74
ENDBRANCH  72  73
ENDBRANCH  61  72
ENDBRANCH  55  56
ENDBRANCH   1  55
TORSDOF 27
ENDMDL
MODEL 41
REMARK VINA RESULT:      -5.7      5.898     10.825
REMARK  27 active torsions:
REMARK  status: ('A' for Active; 'I' for Inactive)
REMARK    1  A    between atoms: C1_1  and  O1_2 
REMARK    2  A    between atoms: S1_5  and  N2_7 
REMARK    3  A    between atoms: C2_6  and  N2_7 
REMARK    4  A    between atoms: S2_10  and  O6_22 
REMARK    5  A    between atoms: C3_11  and  O3_12 
REMARK    6  A    between atoms: C4_15  and  O4_16 
REMARK    7  A    between atoms: O4_16  and  C1_24 
REMARK    8  A    between atoms: C5_18  and  C6_21 
REMARK    9  A    between atoms: C6_21  and  O6_22 
REMARK   10  A    between atoms: C2_26  and  O2_27 
REMARK   11  A    between atoms: O2_27  and  S_40 
REMARK   12  A    between atoms: C3_29  and  O3_30 
REMARK   13  A    between atoms: C4_33  and  O4_34 
REMARK   14  A    between atoms: O4_34  and  C1_41 
REMARK   15  A    between atoms: C5_35  and  C6_37 
REMARK   16  A    between atoms: S1_43  and  N2_45 
REMARK   17  A    between atoms: C2_44  and  N2_45 
REMARK   18  A    between atoms: S2_48  and  O6_60 
REMARK   19  A    between atoms: C3_49  and  O3_50 
REMARK   20  A    between atoms: C4_53  and  O4_54 
REMARK   21  A    between atoms: O4_54  and  C1_62 
REMARK   22  A    between atoms: C5_56  and  C6_59 
REMARK   23  A    between atoms: C6_59  and  O6_60 
REMARK   24  A    between atoms: C2_64  and  O2_65 
REMARK   25  A    between atoms: O2_65  and  S_77 
REMARK   26  A    between atoms: C3_67  and  O3_68 
REMARK   27  A    between atoms: C5_72  and  C6_74 
ROOT
HETATM    1  C1  IDS C   2      31.473  70.746  10.231  1.00 40.81     0.294 C 
HETATM    2  C2  IDS C   2      30.859  72.147  10.167  1.00 40.20     0.231 C 
HETATM    3  C3  IDS C   2      31.522  73.082  11.174  1.00 39.01     0.185 C 
HETATM    4  C4  IDS C   2      31.349  72.556  12.613  1.00 37.65     0.195 C 
HETATM    5  C5  IDS C   2      31.048  71.052  12.586  1.00 35.99     0.257 C 
HETATM    6  O5  IDS C   2      31.867  70.410  11.579  1.00 39.00    -0.340 OA
ENDROOT
BRANCH   4   7
HETATM    7  O4  IDS C   2      32.557  72.807  13.375  1.00 35.98    -0.348 OA
BRANCH   7   8
HETATM    8  C1  SGN C   3      32.520  73.908  14.244  1.00 35.40     0.287 C 
HETATM    9  C2  SGN C   3      33.944  74.438  14.486  1.00 33.71     0.182 C 
HETATM   10  C3  SGN C   3      34.766  73.512  15.390  1.00 35.79     0.178 C 
HETATM   11  C4  SGN C   3      33.975  73.074  16.635  1.00 36.62     0.186 C 
HETATM   12  C5  SGN C   3      32.592  72.579  16.229  1.00 39.32     0.181 C 
HETATM   13  O5  SGN C   3      31.903  73.595  15.480  1.00 37.58    -0.349 OA
BRANCH   9  14
HETATM   14  N2  SGN C   3      34.629  74.580  13.220  1.00 29.28    -0.289 N 
ATOM     15  H2  SGN C   3      35.140  73.800  12.806  1.00  0.00     0.175 HD
BRANCH  14  16
HETATM   16  S1  SGN C   3      34.553  76.048  12.467  1.00 27.84     0.205 S 
HETATM   17  O1S SGN C   3      33.543  75.880  11.440  1.00 27.65    -0.578 OA
HETATM   18  O2S SGN C   3      35.917  76.271  11.904  1.00 27.72    -0.578 OA
HETATM   19  O3S SGN C   3      34.181  77.100  13.466  1.00 28.50    -0.578 OA
ENDBRANCH  14  16
ENDBRANCH   9  14
BRANCH  10  20
HETATM   20  O3  SGN C   3      35.967  74.172  15.781  1.00 34.89    -0.391 OA
ATOM     21  H3  SGN C   3      36.605  73.527  16.063  1.00  0.00     0.210 HD
ENDBRANCH  10  20
BRANCH  11  22
HETATM   22  O4  SGN C   3      34.674  71.998  17.285  1.00 37.13    -0.348 OA
BRANCH  22  23
HETATM   23  C1  UAP C   4      35.171  72.289  18.545  1.00 39.64     0.294 C 
HETATM   24  C2  UAP C   4      35.164  71.041  19.410  1.00 38.70     0.228 C 
HETATM   25  C3  UAP C   4      35.619  71.383  20.826  1.00 38.51     0.156 C 
HETATM   26  C4  UAP C   4      36.859  72.391  20.882  1.00 38.14     0.077 C 
HETATM   27  C5  UAP C   4      37.194  72.978  19.653  1.00 38.51     0.228 C 
HETATM   28  O5  UAP C   4      36.510  72.740  18.390  1.00 37.46    -0.343 OA
BRANCH  24  29
HETATM   29  O2  UAP C   4      33.806  70.503  19.507  1.00 40.54    -0.244 OA
BRANCH  29  30
HETATM   30  S   UAP C   4      33.550  68.929  19.647  1.00 40.49     0.252 S 
HETATM   31  O1S UAP C   4      32.485  68.583  18.694  1.00 40.89    -0.572 OA
HETATM   32  O2S UAP C   4      33.134  68.689  21.036  1.00 37.88    -0.572 OA
HETATM   33  O3S UAP C   4      34.817  68.255  19.325  1.00 37.47    -0.572 OA
ENDBRANCH  29  30
ENDBRANCH  24  29
BRANCH  25  34
HETATM   34  O3  UAP C   4      35.959  70.184  21.504  1.00 38.58    -0.393 OA
ATOM     35  H3  UAP C   4      36.590  69.702  20.982  1.00  0.00     0.210 HD
ENDBRANCH  25  34
BRANCH  27  36
HETATM   36  C6  UAP C   4      38.344  73.912  19.499  1.00 37.96     0.203 C 
HETATM   37  O6A UAP C   4      39.460  73.544  19.915  1.00 40.05    -0.646 OA
HETATM   38  O6B UAP C   4      38.137  75.021  18.963  1.00 36.71    -0.646 OA
ENDBRANCH  27  36
ENDBRANCH  22  23
ENDBRANCH  11  22
BRANCH  12  39
HETATM   39  C6  SGN C   3      31.707  72.204  17.385  1.00 42.65     0.227 C 
BRANCH  39  40
HETATM   40  O6  SGN C   3      31.648  73.376  18.227  1.00 51.09    -0.254 OA
BRANCH  40  41
HETATM   41  S2  SGN C   3      31.230  73.135  19.748  1.00 54.80     0.251 S 
HETATM   42  O4S SGN C   3      30.623  71.794  19.831  1.00 54.99    -0.572 OA
HETATM   43  O5S SGN C   3      30.252  74.208  20.097  1.00 53.99    -0.572 OA
HETATM   44  O6S SGN C   3      32.449  73.226  20.541  1.00 55.43    -0.572 OA
ENDBRANCH  40  41
ENDBRANCH  39  40
ENDBRANCH  12  39
ENDBRANCH   7   8
ENDBRANCH   4   7
BRANCH   3  45
HETATM   45  O3  IDS C   2      30.951  74.379  11.063  1.00 39.65    -0.390 OA
ATOM     46  H3  IDS C   2      31.616  75.034  11.238  1.00  0.00     0.210 HD
ENDBRANCH   3  45
BRANCH   5  47
HETATM   47  C6  IDS C   2      31.275  70.327  13.905  1.00 36.10     0.206 C 
HETATM   48  O6A IDS C   2      30.411  70.464  14.798  1.00 32.44    -0.646 OA
HETATM   49  O6B IDS C   2      32.304  69.620  14.027  1.00 33.44    -0.646 OA
ENDBRANCH   5  47
BRANCH   2  50
HETATM   50  O2  IDS C   2      31.047  72.704   8.834  1.00 43.59    -0.244 OA
BRANCH  50  51
HETATM   51  S   IDS C   2      29.798  73.316   8.051  1.00 44.11     0.252 S 
HETATM   52  O1S IDS C   2      29.811  74.797   8.302  1.00 44.48    -0.572 OA
HETATM   53  O2S IDS C   2      28.586  72.669   8.596  1.00 44.29    -0.572 OA
HETATM   54  O3S IDS C   2      29.988  73.005   6.645  1.00 44.74    -0.572 OA
ENDBRANCH  50  51
ENDBRANCH   2  50
BRANCH   1  55
HETATM   55  O4  SGN C   1      30.542  69.812   9.797  1.00 44.73    -0.348 OA
BRANCH  55  56
HETATM   56  C4  SGN C   1      31.031  68.509   9.411  1.00 48.25     0.186 C 
HETATM   57  C3  SGN C   1      30.650  67.476  10.480  1.00 48.43     0.178 C 
HETATM   58  C2  SGN C   1      31.025  66.071  10.008  1.00 48.58     0.181 C 
HETATM   59  C1  SGN C   1      30.439  65.766   8.631  1.00 50.40     0.283 C 
HETATM   60  O5  SGN C   1      30.839  66.770   7.691  1.00 50.82    -0.349 OA
HETATM   61  C5  SGN C   1      30.408  68.099   8.066  1.00 51.58     0.181 C 
BRANCH  57  62
HETATM   62  O3  SGN C   1      31.331  67.760  11.692  1.00 46.09    -0.391 OA
ATOM     63  H3  SGN C   1      30.822  67.428  12.423  1.00  0.00     0.210 HD
ENDBRANCH  57  62
BRANCH  58  64
HETATM   64  N2  SGN C   1      30.571  65.080  10.961  1.00 48.56    -0.289 N 
ATOM     65  H2  SGN C   1      29.585  64.935  11.178  1.00  0.00     0.175 HD
BRANCH  64  66
HETATM   66  S1  SGN C   1      31.780  64.202  11.670  1.00 47.67     0.205 S 
HETATM   67  O1S SGN C   1      32.259  63.239  10.654  1.00 47.59    -0.578 OA
HETATM   68  O2S SGN C   1      31.159  63.539  12.821  1.00 48.55    -0.578 OA
HETATM   69  O3S SGN C   1      32.827  65.168  12.069  1.00 47.08    -0.578 OA
ENDBRANCH  64  66
ENDBRANCH  58  64
BRANCH  59  70
HETATM   70  O1  SGN C   1      29.054  65.751   8.701  1.00 51.36    -0.369 OA
ATOM     71  H1  SGN C   1      28.771  66.027   9.564  1.00  0.00     0.212 HD
ENDBRANCH  59  70
BRANCH  61  72
HETATM   72  C6  SGN C   1      30.808  69.017   6.937  1.00 55.48     0.227 C 
BRANCH  72  73
HETATM   73  O6  SGN C   1      29.676  69.825   6.549  1.00 61.59    -0.254 OA
BRANCH  73  74
HETATM   74  S2  SGN C   1      28.962  69.384   5.194  1.00 65.98     0.251 S 
HETATM   75  O4S SGN C   1      30.066  68.992   4.209  1.00 65.09    -0.572 OA
HETATM   76  O5S SGN C   1      28.207  70.533   4.731  1.00 65.58    -0.572 OA
HETATM   77  O6S SGN C   1      28.033  68.177   5.537  1.00 65.84    -0.572 OA
ENDBRANCH  73  74
ENDBRANCH  72  73
ENDBRANCH  61  72
ENDBRANCH  55  56
ENDBRANCH   1  55
TORSDOF 27
ENDMDL
MODEL 42
REMARK VINA RESULT:      -5.7      2.777     10.621
REMARK  27 active torsions:
REMARK  status: ('A' for Active; 'I' for Inactive)
REMARK    1  A    between atoms: C1_1  and  O1_2 
REMARK    2  A    between atoms: S1_5  and  N2_7 
REMARK    3  A    between atoms: C2_6  and  N2_7 
REMARK    4  A    between atoms: S2_10  and  O6_22 
REMARK    5  A    between atoms: C3_11  and  O3_12 
REMARK    6  A    between atoms: C4_15  and  O4_16 
REMARK    7  A    between atoms: O4_16  and  C1_24 
REMARK    8  A    between atoms: C5_18  and  C6_21 
REMARK    9  A    between atoms: C6_21  and  O6_22 
REMARK   10  A    between atoms: C2_26  and  O2_27 
REMARK   11  A    between atoms: O2_27  and  S_40 
REMARK   12  A    between atoms: C3_29  and  O3_30 
REMARK   13  A    between atoms: C4_33  and  O4_34 
REMARK   14  A    between atoms: O4_34  and  C1_41 
REMARK   15  A    between atoms: C5_35  and  C6_37 
REMARK   16  A    between atoms: S1_43  and  N2_45 
REMARK   17  A    between atoms: C2_44  and  N2_45 
REMARK   18  A    between atoms: S2_48  and  O6_60 
REMARK   19  A    between atoms: C3_49  and  O3_50 
REMARK   20  A    between atoms: C4_53  and  O4_54 
REMARK   21  A    between atoms: O4_54  and  C1_62 
REMARK   22  A    between atoms: C5_56  and  C6_59 
REMARK   23  A    between atoms: C6_59  and  O6_60 
REMARK   24  A    between atoms: C2_64  and  O2_65 
REMARK   25  A    between atoms: O2_65  and  S_77 
REMARK   26  A    between atoms: C3_67  and  O3_68 
REMARK   27  A    between atoms: C5_72  and  C6_74 
ROOT
HETATM    1  C1  IDS C   2      35.329  68.857  20.341  1.00 40.81     0.294 C 
HETATM    2  C2  IDS C   2      34.396  68.049  19.436  1.00 40.20     0.231 C 
HETATM    3  C3  IDS C   2      33.703  68.950  18.418  1.00 39.01     0.185 C 
HETATM    4  C4  IDS C   2      32.859  70.032  19.121  1.00 37.65     0.195 C 
HETATM    5  C5  IDS C   2      33.354  70.225  20.560  1.00 35.99     0.257 C 
HETATM    6  O5  IDS C   2      34.800  70.178  20.588  1.00 39.00    -0.340 OA
ENDROOT
BRANCH   4   7
HETATM    7  O4  IDS C   2      32.955  71.281  18.392  1.00 35.98    -0.348 OA
BRANCH   7   8
HETATM    8  C1  SGN C   3      31.754  71.786  17.873  1.00 35.40     0.287 C 
HETATM    9  C2  SGN C   3      31.983  72.351  16.460  1.00 33.71     0.182 C 
HETATM   10  C3  SGN C   3      32.752  73.677  16.481  1.00 35.79     0.178 C 
HETATM   11  C4  SGN C   3      32.187  74.652  17.528  1.00 36.62     0.186 C 
HETATM   12  C5  SGN C   3      32.017  73.944  18.865  1.00 39.32     0.181 C 
HETATM   13  O5  SGN C   3      31.186  72.780  18.707  1.00 37.58    -0.349 OA
BRANCH   9  14
HETATM   14  N2  SGN C   3      32.728  71.393  15.672  1.00 29.28    -0.289 N 
ATOM     15  H2  SGN C   3      33.487  70.850  16.081  1.00  0.00     0.175 HD
BRANCH  14  16
HETATM   16  S1  SGN C   3      32.304  71.212  14.086  1.00 27.84     0.205 S 
HETATM   17  O1S SGN C   3      33.364  71.873  13.348  1.00 27.65    -0.578 OA
HETATM   18  O2S SGN C   3      30.988  71.904  13.950  1.00 27.72    -0.578 OA
HETATM   19  O3S SGN C   3      32.207  69.754  13.761  1.00 28.50    -0.578 OA
ENDBRANCH  14  16
ENDBRANCH   9  14
BRANCH  10  20
HETATM   20  O3  SGN C   3      32.710  74.271  15.186  1.00 34.89    -0.391 OA
ATOM     21  H3  SGN C   3      33.526  74.730  15.021  1.00  0.00     0.210 HD
ENDBRANCH  10  20
BRANCH  11  22
HETATM   22  O4  SGN C   3      33.108  75.744  17.702  1.00 37.13    -0.348 OA
BRANCH  22  23
HETATM   23  C1  UAP C   4      34.447  75.423  17.539  1.00 39.64     0.294 C 
HETATM   24  C2  UAP C   4      35.280  76.688  17.443  1.00 38.70     0.228 C 
HETATM   25  C3  UAP C   4      36.738  76.335  17.167  1.00 38.51     0.156 C 
HETATM   26  C4  UAP C   4      37.273  75.085  18.008  1.00 38.14     0.077 C 
HETATM   27  C5  UAP C   4      36.279  74.372  18.694  1.00 38.51     0.228 C 
HETATM   28  O5  UAP C   4      34.856  74.682  18.681  1.00 37.46    -0.343 OA
BRANCH  24  29
HETATM   29  O2  UAP C   4      34.813  77.514  16.328  1.00 40.54    -0.244 OA
BRANCH  29  30
HETATM   30  S   UAP C   4      35.162  77.130  14.814  1.00 40.49     0.252 S 
HETATM   31  O1S UAP C   4      36.486  77.699  14.522  1.00 40.89    -0.572 OA
HETATM   32  O2S UAP C   4      34.117  77.730  13.972  1.00 37.88    -0.572 OA
HETATM   33  O3S UAP C   4      35.164  75.661  14.730  1.00 37.47    -0.572 OA
ENDBRANCH  29  30
ENDBRANCH  24  29
BRANCH  25  34
HETATM   34  O3  UAP C   4      37.548  77.467  17.444  1.00 38.58    -0.393 OA
ATOM     35  H3  UAP C   4      37.960  77.352  18.292  1.00  0.00     0.210 HD
ENDBRANCH  25  34
BRANCH  27  36
HETATM   36  C6  UAP C   4      36.588  73.202  19.562  1.00 37.96     0.203 C 
HETATM   37  O6A UAP C   4      36.711  72.084  19.022  1.00 40.05    -0.646 OA
HETATM   38  O6B UAP C   4      36.709  73.393  20.791  1.00 36.71    -0.646 OA
ENDBRANCH  27  36
ENDBRANCH  22  23
ENDBRANCH  11  22
BRANCH  12  39
HETATM   39  C6  SGN C   3      31.391  74.791  19.938  1.00 42.65     0.227 C 
BRANCH  39  40
HETATM   40  O6  SGN C   3      30.249  75.423  19.319  1.00 51.09    -0.254 OA
BRANCH  40  41
HETATM   41  S2  SGN C   3      29.088  75.906  20.302  1.00 54.80     0.251 S 
HETATM   42  O4S SGN C   3      28.651  74.733  21.079  1.00 54.99    -0.572 OA
HETATM   43  O5S SGN C   3      27.992  76.438  19.438  1.00 53.99    -0.572 OA
HETATM   44  O6S SGN C   3      29.660  76.938  21.157  1.00 55.43    -0.572 OA
ENDBRANCH  40  41
ENDBRANCH  39  40
ENDBRANCH  12  39
ENDBRANCH   7   8
ENDBRANCH   4   7
BRANCH   3  45
HETATM   45  O3  IDS C   2      32.873  68.162  17.575  1.00 39.65    -0.390 OA
ATOM     46  H3  IDS C   2      32.884  68.520  16.696  1.00  0.00     0.210 HD
ENDBRANCH   3  45
BRANCH   5  47
HETATM   47  C6  IDS C   2      32.916  71.525  21.222  1.00 36.10     0.206 C 
HETATM   48  O6A IDS C   2      31.710  71.638  21.536  1.00 32.44    -0.646 OA
HETATM   49  O6B IDS C   2      33.781  72.407  21.433  1.00 33.44    -0.646 OA
ENDBRANCH   5  47
BRANCH   2  50
HETATM   50  O2  IDS C   2      35.164  67.045  18.710  1.00 43.59    -0.244 OA
BRANCH  50  51
HETATM   51  S   IDS C   2      34.742  65.509  18.804  1.00 44.11     0.252 S 
HETATM   52  O1S IDS C   2      33.597  65.314  17.851  1.00 44.48    -0.572 OA
HETATM   53  O2S IDS C   2      34.351  65.252  20.206  1.00 44.29    -0.572 OA
HETATM   54  O3S IDS C   2      35.904  64.729  18.419  1.00 44.74    -0.572 OA
ENDBRANCH  50  51
ENDBRANCH   2  50
BRANCH   1  55
HETATM   55  O4  SGN C   1      35.474  68.204  21.557  1.00 44.73    -0.348 OA
BRANCH  55  56
HETATM   56  C4  SGN C   1      36.793  68.169  22.145  1.00 48.25     0.186 C 
HETATM   57  C3  SGN C   1      37.150  69.552  22.703  1.00 48.43     0.178 C 
HETATM   58  C2  SGN C   1      38.474  69.486  23.462  1.00 48.58     0.181 C 
HETATM   59  C1  SGN C   1      38.459  68.388  24.524  1.00 50.40     0.283 C 
HETATM   60  O5  SGN C   1      38.120  67.130  23.928  1.00 50.82    -0.349 OA
HETATM   61  C5  SGN C   1      36.824  67.138  23.287  1.00 51.58     0.181 C 
BRANCH  57  62
HETATM   62  O3  SGN C   1      37.265  70.487  21.642  1.00 46.09    -0.391 OA
ATOM     63  H3  SGN C   1      38.068  70.320  21.162  1.00  0.00     0.210 HD
ENDBRANCH  57  62
BRANCH  58  64
HETATM   64  N2  SGN C   1      38.765  70.761  24.086  1.00 48.56    -0.289 N 
ATOM     65  H2  SGN C   1      38.142  71.196  24.766  1.00  0.00     0.175 HD
BRANCH  64  66
HETATM   66  S1  SGN C   1      40.187  71.454  23.603  1.00 47.67     0.205 S 
HETATM   67  O1S SGN C   1      40.199  72.827  24.153  1.00 47.59    -0.578 OA
HETATM   68  O2S SGN C   1      40.152  71.438  22.137  1.00 48.55    -0.578 OA
HETATM   69  O3S SGN C   1      41.275  70.616  24.154  1.00 47.08    -0.578 OA
ENDBRANCH  64  66
ENDBRANCH  58  64
BRANCH  59  70
HETATM   70  O1  SGN C   1      37.515  68.685  25.497  1.00 51.36    -0.369 OA
ATOM     71  H1  SGN C   1      37.826  68.398  26.347  1.00  0.00     0.212 HD
ENDBRANCH  59  70
BRANCH  61  72
HETATM   72  C6  SGN C   1      36.570  65.731  22.807  1.00 55.48     0.227 C 
BRANCH  72  73
HETATM   73  O6  SGN C   1      36.513  64.837  23.939  1.00 61.59    -0.254 OA
BRANCH  73  74
HETATM   74  S2  SGN C   1      35.132  64.062  24.121  1.00 65.98     0.251 S 
HETATM   75  O4S SGN C   1      35.260  62.732  23.374  1.00 65.09    -0.572 OA
HETATM   76  O5S SGN C   1      34.104  64.909  23.544  1.00 65.58    -0.572 OA
HETATM   77  O6S SGN C   1      34.920  63.852  25.653  1.00 65.84    -0.572 OA
ENDBRANCH  73  74
ENDBRANCH  72  73
ENDBRANCH  61  72
ENDBRANCH  55  56
ENDBRANCH   1  55
TORSDOF 27
ENDMDL
MODEL 43
REMARK VINA RESULT:      -5.7     11.201     15.933
REMARK  27 active torsions:
REMARK  status: ('A' for Active; 'I' for Inactive)
REMARK    1  A    between atoms: C1_1  and  O1_2 
REMARK    2  A    between atoms: S1_5  and  N2_7 
REMARK    3  A    between atoms: C2_6  and  N2_7 
REMARK    4  A    between atoms: S2_10  and  O6_22 
REMARK    5  A    between atoms: C3_11  and  O3_12 
REMARK    6  A    between atoms: C4_15  and  O4_16 
REMARK    7  A    between atoms: O4_16  and  C1_24 
REMARK    8  A    between atoms: C5_18  and  C6_21 
REMARK    9  A    between atoms: C6_21  and  O6_22 
REMARK   10  A    between atoms: C2_26  and  O2_27 
REMARK   11  A    between atoms: O2_27  and  S_40 
REMARK   12  A    between atoms: C3_29  and  O3_30 
REMARK   13  A    between atoms: C4_33  and  O4_34 
REMARK   14  A    between atoms: O4_34  and  C1_41 
REMARK   15  A    between atoms: C5_35  and  C6_37 
REMARK   16  A    between atoms: S1_43  and  N2_45 
REMARK   17  A    between atoms: C2_44  and  N2_45 
REMARK   18  A    between atoms: S2_48  and  O6_60 
REMARK   19  A    between atoms: C3_49  and  O3_50 
REMARK   20  A    between atoms: C4_53  and  O4_54 
REMARK   21  A    between atoms: O4_54  and  C1_62 
REMARK   22  A    between atoms: C5_56  and  C6_59 
REMARK   23  A    between atoms: C6_59  and  O6_60 
REMARK   24  A    between atoms: C2_64  and  O2_65 
REMARK   25  A    between atoms: O2_65  and  S_77 
REMARK   26  A    between atoms: C3_67  and  O3_68 
REMARK   27  A    between atoms: C5_72  and  C6_74 
ROOT
HETATM    1  C1  IDS C   2      28.479  86.878  13.838  1.00 40.81     0.294 C 
HETATM    2  C2  IDS C   2      28.405  86.335  15.268  1.00 40.20     0.231 C 
HETATM    3  C3  IDS C   2      28.951  84.912  15.342  1.00 39.01     0.185 C 
HETATM    4  C4  IDS C   2      28.144  83.962  14.434  1.00 37.65     0.195 C 
HETATM    5  C5  IDS C   2      27.405  84.771  13.360  1.00 35.99     0.257 C 
HETATM    6  O5  IDS C   2      28.264  85.828  12.870  1.00 39.00    -0.340 OA
ENDROOT
BRANCH   4   7
HETATM    7  O4  IDS C   2      29.034  83.005  13.809  1.00 35.98    -0.348 OA
BRANCH   7   8
HETATM    8  C1  SGN C   3      29.981  82.403  14.650  1.00 35.40     0.287 C 
HETATM    9  C2  SGN C   3      31.322  82.245  13.911  1.00 33.71     0.182 C 
HETATM   10  C3  SGN C   3      31.277  81.136  12.853  1.00 35.79     0.178 C 
HETATM   11  C4  SGN C   3      30.637  79.848  13.399  1.00 36.62     0.186 C 
HETATM   12  C5  SGN C   3      29.324  80.172  14.101  1.00 39.32     0.181 C 
HETATM   13  O5  SGN C   3      29.544  81.146  15.136  1.00 37.58    -0.349 OA
BRANCH   9  14
HETATM   14  N2  SGN C   3      31.666  83.492  13.264  1.00 29.28    -0.289 N 
ATOM     15  H2  SGN C   3      31.002  83.972  12.657  1.00  0.00     0.175 HD
BRANCH  14  16
HETATM   16  S1  SGN C   3      33.173  84.108  13.541  1.00 27.84     0.205 S 
HETATM   17  O1S SGN C   3      33.437  83.812  14.937  1.00 27.65    -0.578 OA
HETATM   18  O2S SGN C   3      33.052  85.572  13.275  1.00 27.72    -0.578 OA
HETATM   19  O3S SGN C   3      34.156  83.451  12.623  1.00 28.50    -0.578 OA
ENDBRANCH  14  16
ENDBRANCH   9  14
BRANCH  10  20
HETATM   20  O3  SGN C   3      32.598  80.867  12.390  1.00 34.89    -0.391 OA
ATOM     21  H3  SGN C   3      33.200  80.881  13.124  1.00  0.00     0.210 HD
ENDBRANCH  10  20
BRANCH  11  22
HETATM   22  O4  SGN C   3      30.362  78.956  12.303  1.00 37.13    -0.348 OA
BRANCH  22  23
HETATM   23  C1  UAP C   4      30.277  79.556  11.057  1.00 39.64     0.294 C 
HETATM   24  C2  UAP C   4      31.033  78.734  10.029  1.00 38.70     0.228 C 
HETATM   25  C3  UAP C   4      31.021  79.445   8.678  1.00 38.51     0.156 C 
HETATM   26  C4  UAP C   4      29.611  80.099   8.303  1.00 38.14     0.077 C 
HETATM   27  C5  UAP C   4      28.677  80.118   9.349  1.00 38.51     0.228 C 
HETATM   28  O5  UAP C   4      28.904  79.607  10.693  1.00 37.46    -0.343 OA
BRANCH  24  29
HETATM   29  O2  UAP C   4      32.433  78.588  10.432  1.00 40.54    -0.244 OA
BRANCH  29  30
HETATM   30  S   UAP C   4      33.268  77.276  10.053  1.00 40.49     0.252 S 
HETATM   31  O1S UAP C   4      34.138  77.634   8.922  1.00 40.89    -0.572 OA
HETATM   32  O2S UAP C   4      32.290  76.244   9.679  1.00 37.88    -0.572 OA
HETATM   33  O3S UAP C   4      34.043  76.898  11.245  1.00 37.47    -0.572 OA
ENDBRANCH  29  30
ENDBRANCH  24  29
BRANCH  25  34
HETATM   34  O3  UAP C   4      31.394  78.522   7.667  1.00 38.58    -0.393 OA
ATOM     35  H3  UAP C   4      31.276  78.931   6.818  1.00  0.00     0.210 HD
ENDBRANCH  25  34
BRANCH  27  36
HETATM   36  C6  UAP C   4      27.296  80.650   9.178  1.00 37.96     0.203 C 
HETATM   37  O6A UAP C   4      27.159  81.777   8.663  1.00 40.05    -0.646 OA
HETATM   38  O6B UAP C   4      26.339  79.944   9.561  1.00 36.71    -0.646 OA
ENDBRANCH  27  36
ENDBRANCH  22  23
ENDBRANCH  11  22
BRANCH  12  39
HETATM   39  C6  SGN C   3      28.659  78.987  14.744  1.00 42.65     0.227 C 
BRANCH  39  40
HETATM   40  O6  SGN C   3      27.592  78.604  13.849  1.00 51.09    -0.254 OA
BRANCH  40  41
HETATM   41  S2  SGN C   3      26.113  78.661  14.445  1.00 54.80     0.251 S 
HETATM   42  O4S SGN C   3      25.959  77.510  15.353  1.00 54.99    -0.572 OA
HETATM   43  O5S SGN C   3      25.181  78.579  13.282  1.00 53.99    -0.572 OA
HETATM   44  O6S SGN C   3      25.992  79.928  15.154  1.00 55.43    -0.572 OA
ENDBRANCH  40  41
ENDBRANCH  39  40
ENDBRANCH  12  39
ENDBRANCH   7   8
ENDBRANCH   4   7
BRANCH   3  45
HETATM   45  O3  IDS C   2      28.899  84.454  16.686  1.00 39.65    -0.390 OA
ATOM     46  H3  IDS C   2      28.419  85.079  17.216  1.00  0.00     0.210 HD
ENDBRANCH   3  45
BRANCH   5  47
HETATM   47  C6  IDS C   2      26.928  83.963  12.161  1.00 36.10     0.206 C 
HETATM   48  O6A IDS C   2      26.018  83.126  12.351  1.00 32.44    -0.646 OA
HETATM   49  O6B IDS C   2      27.455  84.185  11.045  1.00 33.44    -0.646 OA
ENDBRANCH   5  47
BRANCH   2  50
HETATM   50  O2  IDS C   2      29.201  87.175  16.153  1.00 43.59    -0.244 OA
BRANCH  50  51
HETATM   51  S   IDS C   2      28.554  87.735  17.501  1.00 44.11     0.252 S 
HETATM   52  O1S IDS C   2      29.283  89.006  17.837  1.00 44.48    -0.572 OA
HETATM   53  O2S IDS C   2      28.740  86.696  18.535  1.00 44.29    -0.572 OA
HETATM   54  O3S IDS C   2      27.149  87.976  17.225  1.00 44.74    -0.572 OA
ENDBRANCH  50  51
ENDBRANCH   2  50
BRANCH   1  55
HETATM   55  O4  SGN C   1      27.503  87.849  13.662  1.00 44.73    -0.348 OA
BRANCH  55  56
HETATM   56  C4  SGN C   1      27.144  88.199  12.307  1.00 48.25     0.186 C 
HETATM   57  C3  SGN C   1      25.618  88.185  12.155  1.00 48.43     0.178 C 
HETATM   58  C2  SGN C   1      25.224  88.704  10.773  1.00 48.58     0.181 C 
HETATM   59  C1  SGN C   1      25.851  90.066  10.484  1.00 50.40     0.283 C 
HETATM   60  O5  SGN C   1      27.273  89.998  10.645  1.00 50.82    -0.349 OA
HETATM   61  C5  SGN C   1      27.673  89.605  11.978  1.00 51.58     0.181 C 
BRANCH  57  62
HETATM   62  O3  SGN C   1      25.128  86.864  12.317  1.00 46.09    -0.391 OA
ATOM     63  H3  SGN C   1      25.161  86.627  13.237  1.00  0.00     0.210 HD
ENDBRANCH  57  62
BRANCH  58  64
HETATM   64  N2  SGN C   1      23.783  88.798  10.660  1.00 48.56    -0.289 N 
ATOM     65  H2  SGN C   1      23.223  89.416  11.247  1.00  0.00     0.175 HD
BRANCH  64  66
HETATM   66  S1  SGN C   1      23.118  87.821   9.502  1.00 47.67     0.205 S 
HETATM   67  O1S SGN C   1      22.241  88.678   8.674  1.00 47.59    -0.578 OA
HETATM   68  O2S SGN C   1      22.369  86.797  10.238  1.00 48.55    -0.578 OA
HETATM   69  O3S SGN C   1      24.245  87.253   8.729  1.00 47.08    -0.578 OA
ENDBRANCH  64  66
ENDBRANCH  58  64
BRANCH  59  70
HETATM   70  O1  SGN C   1      25.350  91.013  11.366  1.00 51.36    -0.369 OA
ATOM     71  H1  SGN C   1      25.571  90.772  12.258  1.00  0.00     0.212 HD
ENDBRANCH  59  70
BRANCH  61  72
HETATM   72  C6  SGN C   1      29.179  89.683  12.017  1.00 55.48     0.227 C 
BRANCH  72  73
HETATM   73  O6  SGN C   1      29.733  88.835  10.988  1.00 61.59    -0.254 OA
BRANCH  73  74
HETATM   74  S2  SGN C   1      30.798  89.537  10.033  1.00 65.98     0.251 S 
HETATM   75  O4S SGN C   1      30.078  89.872   8.724  1.00 65.09    -0.572 OA
HETATM   76  O5S SGN C   1      31.869  88.578   9.830  1.00 65.58    -0.572 OA
HETATM   77  O6S SGN C   1      31.299  90.821  10.767  1.00 65.84    -0.572 OA
ENDBRANCH  73  74
ENDBRANCH  72  73
ENDBRANCH  61  72
ENDBRANCH  55  56
ENDBRANCH   1  55
TORSDOF 27
ENDMDL
MODEL 44
REMARK VINA RESULT:      -5.7      2.774     11.514
REMARK  27 active torsions:
REMARK  status: ('A' for Active; 'I' for Inactive)
REMARK    1  A    between atoms: C1_1  and  O1_2 
REMARK    2  A    between atoms: S1_5  and  N2_7 
REMARK    3  A    between atoms: C2_6  and  N2_7 
REMARK    4  A    between atoms: S2_10  and  O6_22 
REMARK    5  A    between atoms: C3_11  and  O3_12 
REMARK    6  A    between atoms: C4_15  and  O4_16 
REMARK    7  A    between atoms: O4_16  and  C1_24 
REMARK    8  A    between atoms: C5_18  and  C6_21 
REMARK    9  A    between atoms: C6_21  and  O6_22 
REMARK   10  A    between atoms: C2_26  and  O2_27 
REMARK   11  A    between atoms: O2_27  and  S_40 
REMARK   12  A    between atoms: C3_29  and  O3_30 
REMARK   13  A    between atoms: C4_33  and  O4_34 
REMARK   14  A    between atoms: O4_34  and  C1_41 
REMARK   15  A    between atoms: C5_35  and  C6_37 
REMARK   16  A    between atoms: S1_43  and  N2_45 
REMARK   17  A    between atoms: C2_44  and  N2_45 
REMARK   18  A    between atoms: S2_48  and  O6_60 
REMARK   19  A    between atoms: C3_49  and  O3_50 
REMARK   20  A    between atoms: C4_53  and  O4_54 
REMARK   21  A    between atoms: O4_54  and  C1_62 
REMARK   22  A    between atoms: C5_56  and  C6_59 
REMARK   23  A    between atoms: C6_59  and  O6_60 
REMARK   24  A    between atoms: C2_64  and  O2_65 
REMARK   25  A    between atoms: O2_65  and  S_77 
REMARK   26  A    between atoms: C3_67  and  O3_68 
REMARK   27  A    between atoms: C5_72  and  C6_74 
ROOT
HETATM    1  C1  IDS C   2      34.763  68.234  18.319  1.00 40.81     0.294 C 
HETATM    2  C2  IDS C   2      34.873  68.350  16.796  1.00 40.20     0.231 C 
HETATM    3  C3  IDS C   2      35.121  69.795  16.373  1.00 39.01     0.185 C 
HETATM    4  C4  IDS C   2      33.970  70.711  16.835  1.00 37.65     0.195 C 
HETATM    5  C5  IDS C   2      33.209  70.050  17.991  1.00 35.99     0.257 C 
HETATM    6  O5  IDS C   2      34.147  69.410  18.889  1.00 39.00    -0.340 OA
ENDROOT
BRANCH   4   7
HETATM    7  O4  IDS C   2      34.502  71.992  17.259  1.00 35.98    -0.348 OA
BRANCH   7   8
HETATM    8  C1  SGN C   3      34.575  72.986  16.273  1.00 35.40     0.287 C 
HETATM    9  C2  SGN C   3      34.602  74.379  16.927  1.00 33.71     0.182 C 
HETATM   10  C3  SGN C   3      33.238  74.780  17.500  1.00 35.79     0.178 C 
HETATM   11  C4  SGN C   3      32.095  74.510  16.506  1.00 36.62     0.186 C 
HETATM   12  C5  SGN C   3      32.210  73.097  15.948  1.00 39.32     0.181 C 
HETATM   13  O5  SGN C   3      33.504  72.905  15.350  1.00 37.58    -0.349 OA
BRANCH   9  14
HETATM   14  N2  SGN C   3      35.577  74.392  17.995  1.00 29.28    -0.289 N 
ATOM     15  H2  SGN C   3      35.567  73.683  18.728  1.00  0.00     0.175 HD
BRANCH  14  16
HETATM   16  S1  SGN C   3      36.707  75.597  17.986  1.00 27.84     0.205 S 
HETATM   17  O1S SGN C   3      36.072  76.697  18.687  1.00 27.65    -0.578 OA
HETATM   18  O2S SGN C   3      36.951  75.895  16.544  1.00 27.72    -0.578 OA
HETATM   19  O3S SGN C   3      37.947  75.121  18.677  1.00 28.50    -0.578 OA
ENDBRANCH  14  16
ENDBRANCH   9  14
BRANCH  10  20
HETATM   20  O3  SGN C   3      33.259  76.160  17.857  1.00 34.89    -0.391 OA
ATOM     21  H3  SGN C   3      32.498  76.362  18.388  1.00  0.00     0.210 HD
ENDBRANCH  10  20
BRANCH  11  22
HETATM   22  O4  SGN C   3      30.835  74.631  17.190  1.00 37.13    -0.348 OA
BRANCH  22  23
HETATM   23  C1  UAP C   4      30.079  75.742  16.849  1.00 39.64     0.294 C 
HETATM   24  C2  UAP C   4      29.668  76.497  18.100  1.00 38.70     0.228 C 
HETATM   25  C3  UAP C   4      28.756  77.664  17.731  1.00 38.51     0.156 C 
HETATM   26  C4  UAP C   4      29.223  78.464  16.429  1.00 38.14     0.077 C 
HETATM   27  C5  UAP C   4      30.253  77.851  15.701  1.00 38.51     0.228 C 
HETATM   28  O5  UAP C   4      30.890  76.586  16.042  1.00 37.46    -0.343 OA
BRANCH  24  29
HETATM   29  O2  UAP C   4      28.911  75.618  18.993  1.00 40.54    -0.244 OA
BRANCH  29  30
HETATM   30  S   UAP C   4      28.768  75.950  20.552  1.00 40.49     0.252 S 
HETATM   31  O1S UAP C   4      28.676  74.664  21.258  1.00 40.89    -0.572 OA
HETATM   32  O2S UAP C   4      27.540  76.743  20.707  1.00 37.88    -0.572 OA
HETATM   33  O3S UAP C   4      29.967  76.708  20.944  1.00 37.47    -0.572 OA
ENDBRANCH  29  30
ENDBRANCH  24  29
BRANCH  25  34
HETATM   34  O3  UAP C   4      28.684  78.559  18.830  1.00 38.58    -0.393 OA
ATOM     35  H3  UAP C   4      28.048  79.237  18.635  1.00  0.00     0.210 HD
ENDBRANCH  25  34
BRANCH  27  36
HETATM   36  C6  UAP C   4      30.848  78.465  14.482  1.00 37.96     0.203 C 
HETATM   37  O6A UAP C   4      31.224  79.652  14.544  1.00 40.05    -0.646 OA
HETATM   38  O6B UAP C   4      30.940  77.764  13.451  1.00 36.71    -0.646 OA
ENDBRANCH  27  36
ENDBRANCH  22  23
ENDBRANCH  11  22
BRANCH  12  39
HETATM   39  C6  SGN C   3      31.184  72.761  14.901  1.00 42.65     0.227 C 
BRANCH  39  40
HETATM   40  O6  SGN C   3      31.784  73.123  13.638  1.00 51.09    -0.254 OA
BRANCH  40  41
HETATM   41  S2  SGN C   3      30.846  73.900  12.606  1.00 54.80     0.251 S 
HETATM   42  O4S SGN C   3      31.677  74.915  11.933  1.00 54.99    -0.572 OA
HETATM   43  O5S SGN C   3      29.752  74.522  13.409  1.00 53.99    -0.572 OA
HETATM   44  O6S SGN C   3      30.339  72.908  11.667  1.00 55.43    -0.572 OA
ENDBRANCH  40  41
ENDBRANCH  39  40
ENDBRANCH  12  39
ENDBRANCH   7   8
ENDBRANCH   4   7
BRANCH   3  45
HETATM   45  O3  IDS C   2      35.251  69.859  14.959  1.00 39.65    -0.390 OA
ATOM     46  H3  IDS C   2      35.185  70.763  14.676  1.00  0.00     0.210 HD
ENDBRANCH   3  45
BRANCH   5  47
HETATM   47  C6  IDS C   2      32.345  70.994  18.816  1.00 36.10     0.206 C 
HETATM   48  O6A IDS C   2      31.183  71.218  18.411  1.00 32.44    -0.646 OA
HETATM   49  O6B IDS C   2      32.830  71.486  19.862  1.00 33.44    -0.646 OA
ENDBRANCH   5  47
BRANCH   2  50
HETATM   50  O2  IDS C   2      35.986  67.538  16.321  1.00 43.59    -0.244 OA
BRANCH  50  51
HETATM   51  S   IDS C   2      35.692  66.199  15.502  1.00 44.11     0.252 S 
HETATM   52  O1S IDS C   2      34.219  65.928  15.627  1.00 44.48    -0.572 OA
HETATM   53  O2S IDS C   2      36.509  65.129  16.113  1.00 44.29    -0.572 OA
HETATM   54  O3S IDS C   2      36.080  66.453  14.126  1.00 44.74    -0.572 OA
ENDBRANCH  50  51
ENDBRANCH   2  50
BRANCH   1  55
HETATM   55  O4  SGN C   1      33.990  67.128  18.644  1.00 44.73    -0.348 OA
BRANCH  55  56
HETATM   56  C4  SGN C   1      34.306  66.427  19.867  1.00 48.25     0.186 C 
HETATM   57  C3  SGN C   1      33.675  67.155  21.060  1.00 48.43     0.178 C 
HETATM   58  C2  SGN C   1      33.871  66.338  22.337  1.00 48.58     0.181 C 
HETATM   59  C1  SGN C   1      33.374  64.903  22.167  1.00 50.40     0.283 C 
HETATM   60  O5  SGN C   1      34.008  64.291  21.038  1.00 50.82    -0.349 OA
HETATM   61  C5  SGN C   1      33.754  64.993  19.798  1.00 51.58     0.181 C 
BRANCH  57  62
HETATM   62  O3  SGN C   1      34.277  68.429  21.222  1.00 46.09    -0.391 OA
ATOM     63  H3  SGN C   1      34.419  68.594  22.148  1.00  0.00     0.210 HD
ENDBRANCH  57  62
BRANCH  58  64
HETATM   64  N2  SGN C   1      33.185  66.963  23.448  1.00 48.56    -0.289 N 
ATOM     65  H2  SGN C   1      32.169  67.039  23.495  1.00  0.00     0.175 HD
BRANCH  64  66
HETATM   66  S1  SGN C   1      34.182  67.544  24.634  1.00 47.67     0.205 S 
HETATM   67  O1S SGN C   1      33.797  66.857  25.886  1.00 47.59    -0.578 OA
HETATM   68  O2S SGN C   1      33.928  68.987  24.685  1.00 48.55    -0.578 OA
HETATM   69  O3S SGN C   1      35.565  67.225  24.218  1.00 47.08    -0.578 OA
ENDBRANCH  64  66
ENDBRANCH  58  64
BRANCH  59  70
HETATM   70  O1  SGN C   1      32.002  64.901  21.961  1.00 51.36    -0.369 OA
ATOM     71  H1  SGN C   1      31.550  64.854  22.795  1.00  0.00     0.212 HD
ENDBRANCH  59  70
BRANCH  61  72
HETATM   72  C6  SGN C   1      34.391  64.176  18.702  1.00 55.48     0.227 C 
BRANCH  72  73
HETATM   73  O6  SGN C   1      33.436  63.219  18.195  1.00 61.59    -0.254 OA
BRANCH  73  74
HETATM   74  S2  SGN C   1      33.596  61.738  18.761  1.00 65.98     0.251 S 
HETATM   75  O4S SGN C   1      35.055  61.576  19.194  1.00 65.09    -0.572 OA
HETATM   76  O5S SGN C   1      33.253  60.840  17.674  1.00 65.58    -0.572 OA
HETATM   77  O6S SGN C   1      32.613  61.596  19.965  1.00 65.84    -0.572 OA
ENDBRANCH  73  74
ENDBRANCH  72  73
ENDBRANCH  61  72
ENDBRANCH  55  56
ENDBRANCH   1  55
TORSDOF 27
ENDMDL
MODEL 45
REMARK VINA RESULT:      -5.6      6.173     12.157
REMARK  27 active torsions:
REMARK  status: ('A' for Active; 'I' for Inactive)
REMARK    1  A    between atoms: C1_1  and  O1_2 
REMARK    2  A    between atoms: S1_5  and  N2_7 
REMARK    3  A    between atoms: C2_6  and  N2_7 
REMARK    4  A    between atoms: S2_10  and  O6_22 
REMARK    5  A    between atoms: C3_11  and  O3_12 
REMARK    6  A    between atoms: C4_15  and  O4_16 
REMARK    7  A    between atoms: O4_16  and  C1_24 
REMARK    8  A    between atoms: C5_18  and  C6_21 
REMARK    9  A    between atoms: C6_21  and  O6_22 
REMARK   10  A    between atoms: C2_26  and  O2_27 
REMARK   11  A    between atoms: O2_27  and  S_40 
REMARK   12  A    between atoms: C3_29  and  O3_30 
REMARK   13  A    between atoms: C4_33  and  O4_34 
REMARK   14  A    between atoms: O4_34  and  C1_41 
REMARK   15  A    between atoms: C5_35  and  C6_37 
REMARK   16  A    between atoms: S1_43  and  N2_45 
REMARK   17  A    between atoms: C2_44  and  N2_45 
REMARK   18  A    between atoms: S2_48  and  O6_60 
REMARK   19  A    between atoms: C3_49  and  O3_50 
REMARK   20  A    between atoms: C4_53  and  O4_54 
REMARK   21  A    between atoms: O4_54  and  C1_62 
REMARK   22  A    between atoms: C5_56  and  C6_59 
REMARK   23  A    between atoms: C6_59  and  O6_60 
REMARK   24  A    between atoms: C2_64  and  O2_65 
REMARK   25  A    between atoms: O2_65  and  S_77 
REMARK   26  A    between atoms: C3_67  and  O3_68 
REMARK   27  A    between atoms: C5_72  and  C6_74 
ROOT
HETATM    1  C1  IDS C   2      31.192  70.768  10.021  1.00 40.81     0.294 C 
HETATM    2  C2  IDS C   2      30.617  72.156   9.727  1.00 40.20     0.231 C 
HETATM    3  C3  IDS C   2      31.298  73.223  10.580  1.00 39.01     0.185 C 
HETATM    4  C4  IDS C   2      31.100  72.939  12.082  1.00 37.65     0.195 C 
HETATM    5  C5  IDS C   2      30.758  71.458  12.292  1.00 35.99     0.257 C 
HETATM    6  O5  IDS C   2      31.567  70.642  11.411  1.00 39.00    -0.340 OA
ENDROOT
BRANCH   4   7
HETATM    7  O4  IDS C   2      32.308  73.277  12.809  1.00 35.98    -0.348 OA
BRANCH   7   8
HETATM    8  C1  SGN C   3      32.786  74.584  12.636  1.00 35.40     0.287 C 
HETATM    9  C2  SGN C   3      34.279  74.654  13.003  1.00 33.71     0.182 C 
HETATM   10  C3  SGN C   3      34.512  74.566  14.515  1.00 35.79     0.178 C 
HETATM   11  C4  SGN C   3      33.568  75.496  15.298  1.00 36.62     0.186 C 
HETATM   12  C5  SGN C   3      32.134  75.309  14.818  1.00 39.32     0.181 C 
HETATM   13  O5  SGN C   3      32.055  75.527  13.399  1.00 37.58    -0.349 OA
BRANCH   9  14
HETATM   14  N2  SGN C   3      34.986  73.569  12.359  1.00 29.28    -0.289 N 
ATOM     15  H2  SGN C   3      34.913  72.613  12.706  1.00  0.00     0.175 HD
BRANCH  14  16
HETATM   16  S1  SGN C   3      35.915  73.934  11.043  1.00 27.84     0.205 S 
HETATM   17  O1S SGN C   3      36.411  72.651  10.580  1.00 27.65    -0.578 OA
HETATM   18  O2S SGN C   3      37.000  74.819  11.562  1.00 27.72    -0.578 OA
HETATM   19  O3S SGN C   3      35.073  74.624  10.015  1.00 28.50    -0.578 OA
ENDBRANCH  14  16
ENDBRANCH   9  14
BRANCH  10  20
HETATM   20  O3  SGN C   3      35.870  74.890  14.806  1.00 34.89    -0.391 OA
ATOM     21  H3  SGN C   3      36.427  74.581  14.102  1.00  0.00     0.210 HD
ENDBRANCH  10  20
BRANCH  11  22
HETATM   22  O4  SGN C   3      33.631  75.164  16.696  1.00 37.13    -0.348 OA
BRANCH  22  23
HETATM   23  C1  UAP C   4      34.274  76.093  17.498  1.00 39.64     0.294 C 
HETATM   24  C2  UAP C   4      33.639  76.123  18.877  1.00 38.70     0.228 C 
HETATM   25  C3  UAP C   4      34.284  77.213  19.727  1.00 38.51     0.156 C 
HETATM   26  C4  UAP C   4      35.873  77.298  19.575  1.00 38.14     0.077 C 
HETATM   27  C5  UAP C   4      36.404  76.524  18.533  1.00 38.51     0.228 C 
HETATM   28  O5  UAP C   4      35.633  75.692  17.621  1.00 37.46    -0.343 OA
BRANCH  24  29
HETATM   29  O2  UAP C   4      32.214  76.442  18.767  1.00 40.54    -0.244 OA
BRANCH  29  30
HETATM   30  S   UAP C   4      31.127  75.682  19.663  1.00 40.49     0.252 S 
HETATM   31  O1S UAP C   4      31.702  74.376  20.018  1.00 40.89    -0.572 OA
HETATM   32  O2S UAP C   4      29.921  75.537  18.834  1.00 37.88    -0.572 OA
HETATM   33  O3S UAP C   4      30.884  76.517  20.850  1.00 37.47    -0.572 OA
ENDBRANCH  29  30
ENDBRANCH  24  29
BRANCH  25  34
HETATM   34  O3  UAP C   4      33.954  76.991  21.089  1.00 38.58    -0.393 OA
ATOM     35  H3  UAP C   4      33.760  77.826  21.500  1.00  0.00     0.210 HD
ENDBRANCH  25  34
BRANCH  27  36
HETATM   36  C6  UAP C   4      37.867  76.443  18.262  1.00 37.96     0.203 C 
HETATM   37  O6A UAP C   4      38.373  75.316  18.095  1.00 40.05    -0.646 OA
HETATM   38  O6B UAP C   4      38.519  77.508  18.217  1.00 36.71    -0.646 OA
ENDBRANCH  27  36
ENDBRANCH  22  23
ENDBRANCH  11  22
BRANCH  12  39
HETATM   39  C6  SGN C   3      31.142  76.235  15.465  1.00 42.65     0.227 C 
BRANCH  39  40
HETATM   40  O6  SGN C   3      30.728  77.149  14.427  1.00 51.09    -0.254 OA
BRANCH  40  41
HETATM   41  S2  SGN C   3      29.158  77.396  14.285  1.00 54.80     0.251 S 
HETATM   42  O4S SGN C   3      28.635  77.697  15.630  1.00 54.99    -0.572 OA
HETATM   43  O5S SGN C   3      28.576  76.135  13.734  1.00 53.99    -0.572 OA
HETATM   44  O6S SGN C   3      28.986  78.520  13.375  1.00 55.43    -0.572 OA
ENDBRANCH  40  41
ENDBRANCH  39  40
ENDBRANCH  12  39
ENDBRANCH   7   8
ENDBRANCH   4   7
BRANCH   3  45
HETATM   45  O3  IDS C   2      30.764  74.500  10.256  1.00 39.65    -0.390 OA
ATOM     46  H3  IDS C   2      31.348  74.943   9.652  1.00  0.00     0.210 HD
ENDBRANCH   3  45
BRANCH   5  47
HETATM   47  C6  IDS C   2      30.955  70.948  13.713  1.00 36.10     0.206 C 
HETATM   48  O6A IDS C   2      30.528  71.658  14.649  1.00 32.44    -0.646 OA
HETATM   49  O6B IDS C   2      31.519  69.839  13.874  1.00 33.44    -0.646 OA
ENDBRANCH   5  47
BRANCH   2  50
HETATM   50  O2  IDS C   2      30.831  72.488   8.324  1.00 43.59    -0.244 OA
BRANCH  50  51
HETATM   51  S   IDS C   2      29.629  73.093   7.465  1.00 44.11     0.252 S 
HETATM   52  O1S IDS C   2      29.520  74.546   7.834  1.00 44.48    -0.572 OA
HETATM   53  O2S IDS C   2      28.413  72.334   7.826  1.00 44.29    -0.572 OA
HETATM   54  O3S IDS C   2      29.979  72.915   6.067  1.00 44.74    -0.572 OA
ENDBRANCH  50  51
ENDBRANCH   2  50
BRANCH   1  55
HETATM   55  O4  SGN C   1      30.240  69.801   9.731  1.00 44.73    -0.348 OA
BRANCH  55  56
HETATM   56  C4  SGN C   1      30.705  68.457   9.479  1.00 48.25     0.186 C 
HETATM   57  C3  SGN C   1      30.209  67.520  10.587  1.00 48.43     0.178 C 
HETATM   58  C2  SGN C   1      30.563  66.073  10.248  1.00 48.58     0.181 C 
HETATM   59  C1  SGN C   1      30.067  65.685   8.856  1.00 50.40     0.283 C 
HETATM   60  O5  SGN C   1      30.572  66.602   7.879  1.00 50.82    -0.349 OA
HETATM   61  C5  SGN C   1      30.166  67.969   8.123  1.00 51.58     0.181 C 
BRANCH  57  62
HETATM   62  O3  SGN C   1      30.809  67.873  11.823  1.00 46.09    -0.391 OA
ATOM     63  H3  SGN C   1      30.237  67.613  12.536  1.00  0.00     0.210 HD
ENDBRANCH  57  62
BRANCH  58  64
HETATM   64  N2  SGN C   1      30.003  65.171  11.233  1.00 48.56    -0.289 N 
ATOM     65  H2  SGN C   1      29.007  65.146  11.454  1.00  0.00     0.175 HD
BRANCH  64  66
HETATM   66  S1  SGN C   1      31.108  64.186  11.971  1.00 47.67     0.205 S 
HETATM   67  O1S SGN C   1      32.316  65.006  12.209  1.00 47.59    -0.578 OA
HETATM   68  O2S SGN C   1      31.351  63.094  11.024  1.00 48.55    -0.578 OA
HETATM   69  O3S SGN C   1      30.486  63.719  13.229  1.00 47.08    -0.578 OA
ENDBRANCH  64  66
ENDBRANCH  58  64
BRANCH  59  70
HETATM   70  O1  SGN C   1      28.681  65.720   8.822  1.00 51.36    -0.369 OA
ATOM     71  H1  SGN C   1      28.341  64.861   8.601  1.00  0.00     0.212 HD
ENDBRANCH  59  70
BRANCH  61  72
HETATM   72  C6  SGN C   1      30.682  68.786   6.964  1.00 55.48     0.227 C 
BRANCH  72  73
HETATM   73  O6  SGN C   1      29.644  69.679   6.504  1.00 61.59    -0.254 OA
BRANCH  73  74
HETATM   74  S2  SGN C   1      28.929  69.243   5.149  1.00 65.98     0.251 S 
HETATM   75  O4S SGN C   1      30.024  68.760   4.195  1.00 65.09    -0.572 OA
HETATM   76  O5S SGN C   1      28.251  70.422   4.641  1.00 65.58    -0.572 OA
HETATM   77  O6S SGN C   1      27.923  68.103   5.505  1.00 65.84    -0.572 OA
ENDBRANCH  73  74
ENDBRANCH  72  73
ENDBRANCH  61  72
ENDBRANCH  55  56
ENDBRANCH   1  55
TORSDOF 27
ENDMDL
MODEL 46
REMARK VINA RESULT:      -5.6      5.897     11.395
REMARK  27 active torsions:
REMARK  status: ('A' for Active; 'I' for Inactive)
REMARK    1  A    between atoms: C1_1  and  O1_2 
REMARK    2  A    between atoms: S1_5  and  N2_7 
REMARK    3  A    between atoms: C2_6  and  N2_7 
REMARK    4  A    between atoms: S2_10  and  O6_22 
REMARK    5  A    between atoms: C3_11  and  O3_12 
REMARK    6  A    between atoms: C4_15  and  O4_16 
REMARK    7  A    between atoms: O4_16  and  C1_24 
REMARK    8  A    between atoms: C5_18  and  C6_21 
REMARK    9  A    between atoms: C6_21  and  O6_22 
REMARK   10  A    between atoms: C2_26  and  O2_27 
REMARK   11  A    between atoms: O2_27  and  S_40 
REMARK   12  A    between atoms: C3_29  and  O3_30 
REMARK   13  A    between atoms: C4_33  and  O4_34 
REMARK   14  A    between atoms: O4_34  and  C1_41 
REMARK   15  A    between atoms: C5_35  and  C6_37 
REMARK   16  A    between atoms: S1_43  and  N2_45 
REMARK   17  A    between atoms: C2_44  and  N2_45 
REMARK   18  A    between atoms: S2_48  and  O6_60 
REMARK   19  A    between atoms: C3_49  and  O3_50 
REMARK   20  A    between atoms: C4_53  and  O4_54 
REMARK   21  A    between atoms: O4_54  and  C1_62 
REMARK   22  A    between atoms: C5_56  and  C6_59 
REMARK   23  A    between atoms: C6_59  and  O6_60 
REMARK   24  A    between atoms: C2_64  and  O2_65 
REMARK   25  A    between atoms: O2_65  and  S_77 
REMARK   26  A    between atoms: C3_67  and  O3_68 
REMARK   27  A    between atoms: C5_72  and  C6_74 
ROOT
HETATM    1  C1  IDS C   2      31.497  70.895  10.143  1.00 40.81     0.294 C 
HETATM    2  C2  IDS C   2      30.901  72.295   9.977  1.00 40.20     0.231 C 
HETATM    3  C3  IDS C   2      31.609  73.303  10.878  1.00 39.01     0.185 C 
HETATM    4  C4  IDS C   2      31.478  72.906  12.362  1.00 37.65     0.195 C 
HETATM    5  C5  IDS C   2      31.156  71.410  12.475  1.00 35.99     0.257 C 
HETATM    6  O5  IDS C   2      31.932  70.670  11.502  1.00 39.00    -0.340 OA
ENDROOT
BRANCH   4   7
HETATM    7  O4  IDS C   2      32.713  73.202  13.061  1.00 35.98    -0.348 OA
BRANCH   7   8
HETATM    8  C1  SGN C   3      33.012  74.561  13.235  1.00 35.40     0.287 C 
HETATM    9  C2  SGN C   3      34.240  74.719  14.150  1.00 33.71     0.182 C 
HETATM   10  C3  SGN C   3      33.919  74.406  15.616  1.00 35.79     0.178 C 
HETATM   11  C4  SGN C   3      32.623  75.094  16.080  1.00 36.62     0.186 C 
HETATM   12  C5  SGN C   3      31.509  74.845  15.071  1.00 39.32     0.181 C 
HETATM   13  O5  SGN C   3      31.917  75.287  13.764  1.00 37.58    -0.349 OA
BRANCH   9  14
HETATM   14  N2  SGN C   3      35.292  73.832  13.704  1.00 29.28    -0.289 N 
ATOM     15  H2  SGN C   3      35.124  72.833  13.585  1.00  0.00     0.175 HD
BRANCH  14  16
HETATM   16  S1  SGN C   3      36.773  74.494  13.396  1.00 27.84     0.205 S 
HETATM   17  O1S SGN C   3      36.740  75.785  14.058  1.00 27.65    -0.578 OA
HETATM   18  O2S SGN C   3      36.850  74.610  11.910  1.00 27.72    -0.578 OA
HETATM   19  O3S SGN C   3      37.841  73.600  13.944  1.00 28.50    -0.578 OA
ENDBRANCH  14  16
ENDBRANCH   9  14
BRANCH  10  20
HETATM   20  O3  SGN C   3      35.010  74.812  16.439  1.00 34.89    -0.391 OA
ATOM     21  H3  SGN C   3      35.828  74.624  15.995  1.00  0.00     0.210 HD
ENDBRANCH  10  20
BRANCH  11  22
HETATM   22  O4  SGN C   3      32.224  74.543  17.348  1.00 37.13    -0.348 OA
BRANCH  22  23
HETATM   23  C1  UAP C   4      33.003  73.495  17.811  1.00 39.64     0.294 C 
HETATM   24  C2  UAP C   4      33.389  73.731  19.260  1.00 38.70     0.228 C 
HETATM   25  C3  UAP C   4      34.326  72.626  19.740  1.00 38.51     0.156 C 
HETATM   26  C4  UAP C   4      33.906  71.164  19.251  1.00 38.14     0.077 C 
HETATM   27  C5  UAP C   4      32.888  71.137  18.285  1.00 38.51     0.228 C 
HETATM   28  O5  UAP C   4      32.226  72.307  17.725  1.00 37.46    -0.343 OA
BRANCH  24  29
HETATM   29  O2  UAP C   4      34.109  74.999  19.388  1.00 40.54    -0.244 OA
BRANCH  29  30
HETATM   30  S   UAP C   4      33.542  76.181  20.307  1.00 40.49     0.252 S 
HETATM   31  O1S UAP C   4      33.404  75.638  21.666  1.00 40.89    -0.572 OA
HETATM   32  O2S UAP C   4      32.241  76.570  19.743  1.00 37.88    -0.572 OA
HETATM   33  O3S UAP C   4      34.519  77.280  20.251  1.00 37.47    -0.572 OA
ENDBRANCH  29  30
ENDBRANCH  24  29
BRANCH  25  34
HETATM   34  O3  UAP C   4      34.379  72.649  21.157  1.00 38.58    -0.393 OA
ATOM     35  H3  UAP C   4      35.276  72.504  21.435  1.00  0.00     0.210 HD
ENDBRANCH  25  34
BRANCH  27  36
HETATM   36  C6  UAP C   4      32.336  69.867  17.739  1.00 37.96     0.203 C 
HETATM   37  O6A UAP C   4      31.098  69.757  17.641  1.00 40.05    -0.646 OA
HETATM   38  O6B UAP C   4      33.138  68.969  17.405  1.00 36.71    -0.646 OA
ENDBRANCH  27  36
ENDBRANCH  22  23
ENDBRANCH  11  22
BRANCH  12  39
HETATM   39  C6  SGN C   3      30.218  75.548  15.392  1.00 42.65     0.227 C 
BRANCH  39  40
HETATM   40  O6  SGN C   3      30.375  76.896  14.900  1.00 51.09    -0.254 OA
BRANCH  40  41
HETATM   41  S2  SGN C   3      29.051  77.617  14.376  1.00 54.80     0.251 S 
HETATM   42  O4S SGN C   3      29.431  78.453  13.223  1.00 54.99    -0.572 OA
HETATM   43  O5S SGN C   3      28.535  78.439  15.510  1.00 53.99    -0.572 OA
HETATM   44  O6S SGN C   3      28.119  76.564  13.995  1.00 55.43    -0.572 OA
ENDBRANCH  40  41
ENDBRANCH  39  40
ENDBRANCH  12  39
ENDBRANCH   7   8
ENDBRANCH   4   7
BRANCH   3  45
HETATM   45  O3  IDS C   2      31.052  74.594  10.673  1.00 39.65    -0.390 OA
ATOM     46  H3  IDS C   2      31.687  75.146  10.231  1.00  0.00     0.210 HD
ENDBRANCH   3  45
BRANCH   5  47
HETATM   47  C6  IDS C   2      31.417  70.798  13.844  1.00 36.10     0.206 C 
HETATM   48  O6A IDS C   2      32.251  69.868  13.914  1.00 32.44    -0.646 OA
HETATM   49  O6B IDS C   2      30.800  71.262  14.832  1.00 33.44    -0.646 OA
ENDBRANCH   5  47
BRANCH   2  50
HETATM   50  O2  IDS C   2      31.051  72.732   8.596  1.00 43.59    -0.244 OA
BRANCH  50  51
HETATM   51  S   IDS C   2      29.775  73.250   7.788  1.00 44.11     0.252 S 
HETATM   52  O1S IDS C   2      29.644  74.718   8.079  1.00 44.48    -0.572 OA
HETATM   53  O2S IDS C   2      28.612  72.479   8.275  1.00 44.29    -0.572 OA
HETATM   54  O3S IDS C   2      30.036  72.999   6.382  1.00 44.74    -0.572 OA
ENDBRANCH  50  51
ENDBRANCH   2  50
BRANCH   1  55
HETATM   55  O4  SGN C   1      30.540  69.943   9.822  1.00 44.73    -0.348 OA
BRANCH  55  56
HETATM   56  C4  SGN C   1      31.004  68.629   9.441  1.00 48.25     0.186 C 
HETATM   57  C3  SGN C   1      30.616  67.609  10.519  1.00 48.43     0.178 C 
HETATM   58  C2  SGN C   1      30.964  66.196  10.053  1.00 48.58     0.181 C 
HETATM   59  C1  SGN C   1      30.361  65.891   8.683  1.00 50.40     0.283 C 
HETATM   60  O5  SGN C   1      30.770  66.883   7.733  1.00 50.82    -0.349 OA
HETATM   61  C5  SGN C   1      30.364  68.221   8.103  1.00 51.58     0.181 C 
BRANCH  57  62
HETATM   62  O3  SGN C   1      31.311  67.890  11.723  1.00 46.09    -0.391 OA
ATOM     63  H3  SGN C   1      30.743  67.709  12.463  1.00  0.00     0.210 HD
ENDBRANCH  57  62
BRANCH  58  64
HETATM   64  N2  SGN C   1      30.502  65.218  11.016  1.00 48.56    -0.289 N 
ATOM     65  H2  SGN C   1      29.567  65.245  11.424  1.00  0.00     0.175 HD
BRANCH  64  66
HETATM   66  S1  SGN C   1      31.612  64.054  11.403  1.00 47.67     0.205 S 
HETATM   67  O1S SGN C   1      31.068  62.768  10.916  1.00 47.59    -0.578 OA
HETATM   68  O2S SGN C   1      31.729  64.096  12.864  1.00 48.55    -0.578 OA
HETATM   69  O3S SGN C   1      32.871  64.428  10.722  1.00 47.08    -0.578 OA
ENDBRANCH  64  66
ENDBRANCH  58  64
BRANCH  59  70
HETATM   70  O1  SGN C   1      28.977  65.899   8.765  1.00 51.36    -0.369 OA
ATOM     71  H1  SGN C   1      28.633  65.050   8.513  1.00  0.00     0.212 HD
ENDBRANCH  59  70
BRANCH  61  72
HETATM   72  C6  SGN C   1      30.769  69.125   6.965  1.00 55.48     0.227 C 
BRANCH  72  73
HETATM   73  O6  SGN C   1      29.614  69.851   6.491  1.00 61.59    -0.254 OA
BRANCH  73  74
HETATM   74  S2  SGN C   1      28.939  69.262   5.173  1.00 65.98     0.251 S 
HETATM   75  O4S SGN C   1      30.066  68.702   4.300  1.00 65.09    -0.572 OA
HETATM   76  O5S SGN C   1      28.256  70.368   4.528  1.00 65.58    -0.572 OA
HETATM   77  O6S SGN C   1      27.944  68.147   5.624  1.00 65.84    -0.572 OA
ENDBRANCH  73  74
ENDBRANCH  72  73
ENDBRANCH  61  72
ENDBRANCH  55  56
ENDBRANCH   1  55
TORSDOF 27
ENDMDL
MODEL 47
REMARK VINA RESULT:      -5.6     14.785     20.603
REMARK  27 active torsions:
REMARK  status: ('A' for Active; 'I' for Inactive)
REMARK    1  A    between atoms: C1_1  and  O1_2 
REMARK    2  A    between atoms: S1_5  and  N2_7 
REMARK    3  A    between atoms: C2_6  and  N2_7 
REMARK    4  A    between atoms: S2_10  and  O6_22 
REMARK    5  A    between atoms: C3_11  and  O3_12 
REMARK    6  A    between atoms: C4_15  and  O4_16 
REMARK    7  A    between atoms: O4_16  and  C1_24 
REMARK    8  A    between atoms: C5_18  and  C6_21 
REMARK    9  A    between atoms: C6_21  and  O6_22 
REMARK   10  A    between atoms: C2_26  and  O2_27 
REMARK   11  A    between atoms: O2_27  and  S_40 
REMARK   12  A    between atoms: C3_29  and  O3_30 
REMARK   13  A    between atoms: C4_33  and  O4_34 
REMARK   14  A    between atoms: O4_34  and  C1_41 
REMARK   15  A    between atoms: C5_35  and  C6_37 
REMARK   16  A    between atoms: S1_43  and  N2_45 
REMARK   17  A    between atoms: C2_44  and  N2_45 
REMARK   18  A    between atoms: S2_48  and  O6_60 
REMARK   19  A    between atoms: C3_49  and  O3_50 
REMARK   20  A    between atoms: C4_53  and  O4_54 
REMARK   21  A    between atoms: O4_54  and  C1_62 
REMARK   22  A    between atoms: C5_56  and  C6_59 
REMARK   23  A    between atoms: C6_59  and  O6_60 
REMARK   24  A    between atoms: C2_64  and  O2_65 
REMARK   25  A    between atoms: O2_65  and  S_77 
REMARK   26  A    between atoms: C3_67  and  O3_68 
REMARK   27  A    between atoms: C5_72  and  C6_74 
ROOT
HETATM    1  C1  IDS C   2      21.961  84.528  11.340  1.00 40.81     0.294 C 
HETATM    2  C2  IDS C   2      21.472  85.955  11.601  1.00 40.20     0.231 C 
HETATM    3  C3  IDS C   2      22.408  86.980  10.967  1.00 39.01     0.185 C 
HETATM    4  C4  IDS C   2      23.833  86.857  11.543  1.00 37.65     0.195 C 
HETATM    5  C5  IDS C   2      24.028  85.465  12.159  1.00 35.99     0.257 C 
HETATM    6  O5  IDS C   2      23.404  84.468  11.316  1.00 39.00    -0.340 OA
ENDROOT
BRANCH   4   7
HETATM    7  O4  IDS C   2      24.808  87.075  10.493  1.00 35.98    -0.348 OA
BRANCH   7   8
HETATM    8  C1  SGN C   3      24.970  88.402  10.068  1.00 35.40     0.287 C 
HETATM    9  C2  SGN C   3      26.354  88.584   9.419  1.00 33.71     0.182 C 
HETATM   10  C3  SGN C   3      27.487  88.576  10.451  1.00 35.79     0.178 C 
HETATM   11  C4  SGN C   3      27.171  89.475  11.659  1.00 36.62     0.186 C 
HETATM   12  C5  SGN C   3      25.772  89.175  12.183  1.00 39.32     0.181 C 
HETATM   13  O5  SGN C   3      24.806  89.327  11.128  1.00 37.58    -0.349 OA
BRANCH   9  14
HETATM   14  N2  SGN C   3      26.584  87.521   8.466  1.00 29.28    -0.289 N 
ATOM     15  H2  SGN C   3      26.521  86.541   8.744  1.00  0.00     0.175 HD
BRANCH  14  16
HETATM   16  S1  SGN C   3      26.954  87.949   6.915  1.00 27.84     0.205 S 
HETATM   17  O1S SGN C   3      25.667  88.166   6.280  1.00 27.65    -0.578 OA
HETATM   18  O2S SGN C   3      27.686  86.778   6.349  1.00 27.72    -0.578 OA
HETATM   19  O3S SGN C   3      27.798  89.185   6.927  1.00 28.50    -0.578 OA
ENDBRANCH  14  16
ENDBRANCH   9  14
BRANCH  10  20
HETATM   20  O3  SGN C   3      28.699  89.000   9.830  1.00 34.89    -0.391 OA
ATOM     21  H3  SGN C   3      29.312  89.287  10.496  1.00  0.00     0.210 HD
ENDBRANCH  10  20
BRANCH  11  22
HETATM   22  O4  SGN C   3      28.119  89.208  12.708  1.00 37.13    -0.348 OA
BRANCH  22  23
HETATM   23  C1  UAP C   4      28.864  90.300  13.127  1.00 39.64     0.294 C 
HETATM   24  C2  UAP C   4      29.616  89.961  14.401  1.00 38.70     0.228 C 
HETATM   25  C3  UAP C   4      30.358  91.192  14.914  1.00 38.51     0.156 C 
HETATM   26  C4  UAP C   4      31.070  92.044  13.765  1.00 38.14     0.077 C 
HETATM   27  C5  UAP C   4      30.726  91.670  12.458  1.00 38.51     0.228 C 
HETATM   28  O5  UAP C   4      29.800  90.605  12.101  1.00 37.46    -0.343 OA
BRANCH  24  29
HETATM   29  O2  UAP C   4      28.677  89.551  15.446  1.00 40.54    -0.244 OA
BRANCH  29  30
HETATM   30  S   UAP C   4      28.935  88.233  16.317  1.00 40.49     0.252 S 
HETATM   31  O1S UAP C   4      29.901  88.594  17.365  1.00 40.89    -0.572 OA
HETATM   32  O2S UAP C   4      29.481  87.220  15.402  1.00 37.88    -0.572 OA
HETATM   33  O3S UAP C   4      27.638  87.826  16.881  1.00 37.47    -0.572 OA
ENDBRANCH  29  30
ENDBRANCH  24  29
BRANCH  25  34
HETATM   34  O3  UAP C   4      31.329  90.783  15.865  1.00 38.58    -0.393 OA
ATOM     35  H3  UAP C   4      30.984  90.051  16.363  1.00  0.00     0.210 HD
ENDBRANCH  25  34
BRANCH  27  36
HETATM   36  C6  UAP C   4      31.318  92.322  11.257  1.00 37.96     0.203 C 
HETATM   37  O6A UAP C   4      30.557  92.628  10.318  1.00 40.05    -0.646 OA
HETATM   38  O6B UAP C   4      32.550  92.529  11.243  1.00 36.71    -0.646 OA
ENDBRANCH  27  36
ENDBRANCH  22  23
ENDBRANCH  11  22
BRANCH  12  39
HETATM   39  C6  SGN C   3      25.334  90.062  13.315  1.00 42.65     0.227 C 
BRANCH  39  40
HETATM   40  O6  SGN C   3      24.256  90.865  12.787  1.00 51.09    -0.254 OA
BRANCH  40  41
HETATM   41  S2  SGN C   3      24.565  92.417  12.580  1.00 54.80     0.251 S 
HETATM   42  O4S SGN C   3      25.122  92.579  11.225  1.00 54.99    -0.572 OA
HETATM   43  O5S SGN C   3      25.551  92.800  13.634  1.00 53.99    -0.572 OA
HETATM   44  O6S SGN C   3      23.300  93.124  12.732  1.00 55.43    -0.572 OA
ENDBRANCH  40  41
ENDBRANCH  39  40
ENDBRANCH  12  39
ENDBRANCH   7   8
ENDBRANCH   4   7
BRANCH   3  45
HETATM   45  O3  IDS C   2      21.906  88.289  11.200  1.00 39.65    -0.390 OA
ATOM     46  H3  IDS C   2      21.103  88.412  10.708  1.00  0.00     0.210 HD
ENDBRANCH   3  45
BRANCH   5  47
HETATM   47  C6  IDS C   2      25.478  85.054  12.374  1.00 36.10     0.206 C 
HETATM   48  O6A IDS C   2      26.148  85.704  13.207  1.00 32.44    -0.646 OA
HETATM   49  O6B IDS C   2      25.924  84.080  11.722  1.00 33.44    -0.646 OA
ENDBRANCH   5  47
BRANCH   2  50
HETATM   50  O2  IDS C   2      20.145  86.132  11.024  1.00 43.59    -0.244 OA
BRANCH  50  51
HETATM   51  S   IDS C   2      18.920  86.523  11.970  1.00 44.11     0.252 S 
HETATM   52  O1S IDS C   2      19.502  86.892  13.305  1.00 44.48    -0.572 OA
HETATM   53  O2S IDS C   2      18.042  85.337  12.054  1.00 44.29    -0.572 OA
HETATM   54  O3S IDS C   2      18.247  87.648  11.345  1.00 44.74    -0.572 OA
ENDBRANCH  50  51
ENDBRANCH   2  50
BRANCH   1  55
HETATM   55  O4  SGN C   1      21.500  83.690  12.346  1.00 44.73    -0.348 OA
BRANCH  55  56
HETATM   56  C4  SGN C   1      21.028  82.380  11.963  1.00 48.25     0.186 C 
HETATM   57  C3  SGN C   1      20.458  82.430  10.540  1.00 48.43     0.178 C 
HETATM   58  C2  SGN C   1      20.100  81.021  10.069  1.00 48.58     0.181 C 
HETATM   59  C1  SGN C   1      21.280  80.062  10.218  1.00 50.40     0.283 C 
HETATM   60  O5  SGN C   1      21.754  80.070  11.570  1.00 50.82    -0.349 OA
HETATM   61  C5  SGN C   1      22.193  81.377  12.008  1.00 51.58     0.181 C 
BRANCH  57  62
HETATM   62  O3  SGN C   1      19.296  83.243  10.513  1.00 46.09    -0.391 OA
ATOM     63  H3  SGN C   1      19.194  83.616   9.644  1.00  0.00     0.210 HD
ENDBRANCH  57  62
BRANCH  58  64
HETATM   64  N2  SGN C   1      19.665  81.045   8.688  1.00 48.56    -0.289 N 
ATOM     65  H2  SGN C   1      20.294  81.262   7.915  1.00  0.00     0.175 HD
BRANCH  64  66
HETATM   66  S1  SGN C   1      18.064  80.691   8.465  1.00 47.67     0.205 S 
HETATM   67  O1S SGN C   1      17.427  80.743   9.800  1.00 47.59    -0.578 OA
HETATM   68  O2S SGN C   1      18.038  79.345   7.884  1.00 48.55    -0.578 OA
HETATM   69  O3S SGN C   1      17.528  81.717   7.544  1.00 47.08    -0.578 OA
ENDBRANCH  64  66
ENDBRANCH  58  64
BRANCH  59  70
HETATM   70  O1  SGN C   1      22.316  80.455   9.383  1.00 51.36    -0.369 OA
ATOM     71  H1  SGN C   1      22.879  79.713   9.197  1.00  0.00     0.212 HD
ENDBRANCH  59  70
BRANCH  61  72
HETATM   72  C6  SGN C   1      22.755  81.200  13.397  1.00 55.48     0.227 C 
BRANCH  72  73
HETATM   73  O6  SGN C   1      24.158  81.540  13.396  1.00 61.59    -0.254 OA
BRANCH  73  74
HETATM   74  S2  SGN C   1      24.895  81.375  14.799  1.00 65.98     0.251 S 
HETATM   75  O4S SGN C   1      26.346  80.987  14.505  1.00 65.09    -0.572 OA
HETATM   76  O5S SGN C   1      24.191  80.327  15.515  1.00 65.58    -0.572 OA
HETATM   77  O6S SGN C   1      24.797  82.748  15.535  1.00 65.84    -0.572 OA
ENDBRANCH  73  74
ENDBRANCH  72  73
ENDBRANCH  61  72
ENDBRANCH  55  56
ENDBRANCH   1  55
TORSDOF 27
ENDMDL
MODEL 48
REMARK VINA RESULT:      -5.6      5.886     10.595
REMARK  27 active torsions:
REMARK  status: ('A' for Active; 'I' for Inactive)
REMARK    1  A    between atoms: C1_1  and  O1_2 
REMARK    2  A    between atoms: S1_5  and  N2_7 
REMARK    3  A    between atoms: C2_6  and  N2_7 
REMARK    4  A    between atoms: S2_10  and  O6_22 
REMARK    5  A    between atoms: C3_11  and  O3_12 
REMARK    6  A    between atoms: C4_15  and  O4_16 
REMARK    7  A    between atoms: O4_16  and  C1_24 
REMARK    8  A    between atoms: C5_18  and  C6_21 
REMARK    9  A    between atoms: C6_21  and  O6_22 
REMARK   10  A    between atoms: C2_26  and  O2_27 
REMARK   11  A    between atoms: O2_27  and  S_40 
REMARK   12  A    between atoms: C3_29  and  O3_30 
REMARK   13  A    between atoms: C4_33  and  O4_34 
REMARK   14  A    between atoms: O4_34  and  C1_41 
REMARK   15  A    between atoms: C5_35  and  C6_37 
REMARK   16  A    between atoms: S1_43  and  N2_45 
REMARK   17  A    between atoms: C2_44  and  N2_45 
REMARK   18  A    between atoms: S2_48  and  O6_60 
REMARK   19  A    between atoms: C3_49  and  O3_50 
REMARK   20  A    between atoms: C4_53  and  O4_54 
REMARK   21  A    between atoms: O4_54  and  C1_62 
REMARK   22  A    between atoms: C5_56  and  C6_59 
REMARK   23  A    between atoms: C6_59  and  O6_60 
REMARK   24  A    between atoms: C2_64  and  O2_65 
REMARK   25  A    between atoms: O2_65  and  S_77 
REMARK   26  A    between atoms: C3_67  and  O3_68 
REMARK   27  A    between atoms: C5_72  and  C6_74 
ROOT
HETATM    1  C1  IDS C   2      31.275  71.152  10.737  1.00 40.81     0.294 C 
HETATM    2  C2  IDS C   2      30.898  72.621  10.527  1.00 40.20     0.231 C 
HETATM    3  C3  IDS C   2      31.635  73.523  11.513  1.00 39.01     0.185 C 
HETATM    4  C4  IDS C   2      31.290  73.150  12.969  1.00 37.65     0.195 C 
HETATM    5  C5  IDS C   2      30.756  71.713  13.025  1.00 35.99     0.257 C 
HETATM    6  O5  IDS C   2      31.524  70.872  12.132  1.00 39.00    -0.340 OA
ENDROOT
BRANCH   4   7
HETATM    7  O4  IDS C   2      32.471  73.273  13.801  1.00 35.98    -0.348 OA
BRANCH   7   8
HETATM    8  C1  SGN C   3      32.813  74.575  14.195  1.00 35.40     0.287 C 
HETATM    9  C2  SGN C   3      34.338  74.768  14.115  1.00 33.71     0.182 C 
HETATM   10  C3  SGN C   3      35.079  74.029  15.236  1.00 35.79     0.178 C 
HETATM   11  C4  SGN C   3      34.427  74.267  16.609  1.00 36.62     0.186 C 
HETATM   12  C5  SGN C   3      32.924  74.038  16.522  1.00 39.32     0.181 C 
HETATM   13  O5  SGN C   3      32.354  74.877  15.501  1.00 37.58    -0.349 OA
BRANCH   9  14
HETATM   14  N2  SGN C   3      34.820  74.283  12.841  1.00 29.28    -0.289 N 
ATOM     15  H2  SGN C   3      34.808  73.288  12.616  1.00  0.00     0.175 HD
BRANCH  14  16
HETATM   16  S1  SGN C   3      35.391  75.397  11.763  1.00 27.84     0.205 S 
HETATM   17  O1S SGN C   3      36.234  76.272  12.557  1.00 27.65    -0.578 OA
HETATM   18  O2S SGN C   3      34.179  76.088  11.234  1.00 27.72    -0.578 OA
HETATM   19  O3S SGN C   3      36.155  74.698  10.682  1.00 28.50    -0.578 OA
ENDBRANCH  14  16
ENDBRANCH   9  14
BRANCH  10  20
HETATM   20  O3  SGN C   3      36.441  74.448  15.262  1.00 34.89    -0.391 OA
ATOM     21  H3  SGN C   3      36.807  74.390  14.387  1.00  0.00     0.210 HD
ENDBRANCH  10  20
BRANCH  11  22
HETATM   22  O4  SGN C   3      34.977  73.338  17.560  1.00 37.13    -0.348 OA
BRANCH  22  23
HETATM   23  C1  UAP C   4      34.942  72.006  17.177  1.00 39.64     0.294 C 
HETATM   24  C2  UAP C   4      36.312  71.376  17.352  1.00 38.70     0.228 C 
HETATM   25  C3  UAP C   4      36.297  69.939  16.838  1.00 38.51     0.156 C 
HETATM   26  C4  UAP C   4      34.983  69.123  17.238  1.00 38.14     0.077 C 
HETATM   27  C5  UAP C   4      33.957  69.899  17.796  1.00 38.51     0.228 C 
HETATM   28  O5  UAP C   4      34.012  71.337  18.019  1.00 37.46    -0.343 OA
BRANCH  24  29
HETATM   29  O2  UAP C   4      37.307  72.109  16.566  1.00 40.54    -0.244 OA
BRANCH  29  30
HETATM   30  S   UAP C   4      38.682  72.597  17.224  1.00 40.49     0.252 S 
HETATM   31  O1S UAP C   4      38.563  74.046  17.441  1.00 40.89    -0.572 OA
HETATM   32  O2S UAP C   4      39.748  72.278  16.263  1.00 37.88    -0.572 OA
HETATM   33  O3S UAP C   4      38.841  71.862  18.489  1.00 37.47    -0.572 OA
ENDBRANCH  29  30
ENDBRANCH  24  29
BRANCH  25  34
HETATM   34  O3  UAP C   4      37.440  69.260  17.334  1.00 38.58    -0.393 OA
ATOM     35  H3  UAP C   4      38.011  69.044  16.607  1.00  0.00     0.210 HD
ENDBRANCH  25  34
BRANCH  27  36
HETATM   36  C6  UAP C   4      32.673  69.310  18.267  1.00 37.96     0.203 C 
HETATM   37  O6A UAP C   4      31.635  69.574  17.629  1.00 40.05    -0.646 OA
HETATM   38  O6B UAP C   4      32.694  68.580  19.281  1.00 36.71    -0.646 OA
ENDBRANCH  27  36
ENDBRANCH  22  23
ENDBRANCH  11  22
BRANCH  12  39
HETATM   39  C6  SGN C   3      32.180  74.327  17.796  1.00 42.65     0.227 C 
BRANCH  39  40
HETATM   40  O6  SGN C   3      31.582  73.074  18.192  1.00 51.09    -0.254 OA
BRANCH  40  41
HETATM   41  S2  SGN C   3      31.177  72.937  19.730  1.00 54.80     0.251 S 
HETATM   42  O4S SGN C   3      30.358  74.113  20.077  1.00 54.99    -0.572 OA
HETATM   43  O5S SGN C   3      32.452  72.901  20.505  1.00 53.99    -0.572 OA
HETATM   44  O6S SGN C   3      30.423  71.697  19.859  1.00 55.43    -0.572 OA
ENDBRANCH  40  41
ENDBRANCH  39  40
ENDBRANCH  12  39
ENDBRANCH   7   8
ENDBRANCH   4   7
BRANCH   3  45
HETATM   45  O3  IDS C   2      31.287  74.879  11.267  1.00 39.65    -0.390 OA
ATOM     46  H3  IDS C   2      31.738  75.439  11.887  1.00  0.00     0.210 HD
ENDBRANCH   3  45
BRANCH   5  47
HETATM   47  C6  IDS C   2      30.780  71.072  14.406  1.00 36.10     0.206 C 
HETATM   48  O6A IDS C   2      30.797  69.822  14.466  1.00 32.44    -0.646 OA
HETATM   49  O6B IDS C   2      30.797  71.822  15.411  1.00 33.44    -0.646 OA
ENDBRANCH   5  47
BRANCH   2  50
HETATM   50  O2  IDS C   2      31.257  73.032   9.176  1.00 43.59    -0.244 OA
BRANCH  50  51
HETATM   51  S   IDS C   2      30.125  73.574   8.190  1.00 44.11     0.252 S 
HETATM   52  O1S IDS C   2      28.846  72.887   8.577  1.00 44.48    -0.572 OA
HETATM   53  O2S IDS C   2      30.548  73.231   6.815  1.00 44.29    -0.572 OA
HETATM   54  O3S IDS C   2      30.048  75.010   8.386  1.00 44.74    -0.572 OA
ENDBRANCH  50  51
ENDBRANCH   2  50
BRANCH   1  55
HETATM   55  O4  SGN C   1      30.238  70.341  10.301  1.00 44.73    -0.348 OA
BRANCH  55  56
HETATM   56  C4  SGN C   1      30.575  69.020   9.824  1.00 48.25     0.186 C 
HETATM   57  C3  SGN C   1      30.145  67.970  10.855  1.00 48.43     0.178 C 
HETATM   58  C2  SGN C   1      30.356  66.565  10.293  1.00 48.58     0.181 C 
HETATM   59  C1  SGN C   1      29.678  66.396   8.935  1.00 50.40     0.283 C 
HETATM   60  O5  SGN C   1      30.131  67.409   8.028  1.00 50.82    -0.349 OA
HETATM   61  C5  SGN C   1      29.853  68.750   8.493  1.00 51.58     0.181 C 
BRANCH  57  62
HETATM   62  O3  SGN C   1      30.907  68.118  12.043  1.00 46.09    -0.391 OA
ATOM     63  H3  SGN C   1      30.403  67.796  12.782  1.00  0.00     0.210 HD
ENDBRANCH  57  62
BRANCH  58  64
HETATM   64  N2  SGN C   1      29.851  65.569  11.216  1.00 48.56    -0.289 N 
ATOM     65  H2  SGN C   1      28.880  65.551  11.530  1.00  0.00     0.175 HD
BRANCH  64  66
HETATM   66  S1  SGN C   1      30.975  64.465  11.720  1.00 47.67     0.205 S 
HETATM   67  O1S SGN C   1      31.172  63.518  10.600  1.00 47.59    -0.578 OA
HETATM   68  O2S SGN C   1      30.388  63.822  12.900  1.00 48.55    -0.578 OA
HETATM   69  O3S SGN C   1      32.202  65.226  12.039  1.00 47.08    -0.578 OA
ENDBRANCH  64  66
ENDBRANCH  58  64
BRANCH  59  70
HETATM   70  O1  SGN C   1      28.303  66.511   9.076  1.00 51.36    -0.369 OA
ATOM     71  H1  SGN C   1      27.886  66.475   8.223  1.00  0.00     0.212 HD
ENDBRANCH  59  70
BRANCH  61  72
HETATM   72  C6  SGN C   1      30.287  69.687   7.394  1.00 55.48     0.227 C 
BRANCH  72  73
HETATM   73  O6  SGN C   1      29.127  70.163   6.679  1.00 61.59    -0.254 OA
BRANCH  73  74
HETATM   74  S2  SGN C   1      28.923  69.537   5.228  1.00 65.98     0.251 S 
HETATM   75  O4S SGN C   1      28.167  70.572   4.392  1.00 65.09    -0.572 OA
HETATM   76  O5S SGN C   1      28.152  68.321   5.407  1.00 65.58    -0.572 OA
HETATM   77  O6S SGN C   1      30.342  69.245   4.648  1.00 65.84    -0.572 OA
ENDBRANCH  73  74
ENDBRANCH  72  73
ENDBRANCH  61  72
ENDBRANCH  55  56
ENDBRANCH   1  55
TORSDOF 27
ENDMDL
MODEL 49
REMARK VINA RESULT:      -5.6      3.317     11.155
REMARK  27 active torsions:
REMARK  status: ('A' for Active; 'I' for Inactive)
REMARK    1  A    between atoms: C1_1  and  O1_2 
REMARK    2  A    between atoms: S1_5  and  N2_7 
REMARK    3  A    between atoms: C2_6  and  N2_7 
REMARK    4  A    between atoms: S2_10  and  O6_22 
REMARK    5  A    between atoms: C3_11  and  O3_12 
REMARK    6  A    between atoms: C4_15  and  O4_16 
REMARK    7  A    between atoms: O4_16  and  C1_24 
REMARK    8  A    between atoms: C5_18  and  C6_21 
REMARK    9  A    between atoms: C6_21  and  O6_22 
REMARK   10  A    between atoms: C2_26  and  O2_27 
REMARK   11  A    between atoms: O2_27  and  S_40 
REMARK   12  A    between atoms: C3_29  and  O3_30 
REMARK   13  A    between atoms: C4_33  and  O4_34 
REMARK   14  A    between atoms: O4_34  and  C1_41 
REMARK   15  A    between atoms: C5_35  and  C6_37 
REMARK   16  A    between atoms: S1_43  and  N2_45 
REMARK   17  A    between atoms: C2_44  and  N2_45 
REMARK   18  A    between atoms: S2_48  and  O6_60 
REMARK   19  A    between atoms: C3_49  and  O3_50 
REMARK   20  A    between atoms: C4_53  and  O4_54 
REMARK   21  A    between atoms: O4_54  and  C1_62 
REMARK   22  A    between atoms: C5_56  and  C6_59 
REMARK   23  A    between atoms: C6_59  and  O6_60 
REMARK   24  A    between atoms: C2_64  and  O2_65 
REMARK   25  A    between atoms: O2_65  and  S_77 
REMARK   26  A    between atoms: C3_67  and  O3_68 
REMARK   27  A    between atoms: C5_72  and  C6_74 
ROOT
HETATM    1  C1  IDS C   2      35.619  68.018  20.295  1.00 40.81     0.294 C 
HETATM    2  C2  IDS C   2      34.695  66.967  19.676  1.00 40.20     0.231 C 
HETATM    3  C3  IDS C   2      34.055  67.488  18.392  1.00 39.01     0.185 C 
HETATM    4  C4  IDS C   2      33.217  68.753  18.666  1.00 37.65     0.195 C 
HETATM    5  C5  IDS C   2      33.672  69.407  19.976  1.00 35.99     0.257 C 
HETATM    6  O5  IDS C   2      35.116  69.354  20.071  1.00 39.00    -0.340 OA
ENDROOT
BRANCH   4   7
HETATM    7  O4  IDS C   2      33.364  69.687  17.567  1.00 35.98    -0.348 OA
BRANCH   7   8
HETATM    8  C1  SGN C   3      32.242  69.852  16.742  1.00 35.40     0.287 C 
HETATM    9  C2  SGN C   3      32.682  70.006  15.276  1.00 33.71     0.182 C 
HETATM   10  C3  SGN C   3      33.321  71.371  14.999  1.00 35.79     0.178 C 
HETATM   11  C4  SGN C   3      32.494  72.524  15.593  1.00 36.62     0.186 C 
HETATM   12  C5  SGN C   3      32.138  72.221  17.043  1.00 39.32     0.181 C 
HETATM   13  O5  SGN C   3      31.450  70.960  17.130  1.00 37.58    -0.349 OA
BRANCH   9  14
HETATM   14  N2  SGN C   3      33.636  68.970  14.946  1.00 29.28    -0.289 N 
ATOM     15  H2  SGN C   3      34.207  68.529  15.667  1.00  0.00     0.175 HD
BRANCH  14  16
HETATM   16  S1  SGN C   3      33.768  68.526  13.360  1.00 27.84     0.205 S 
HETATM   17  O1S SGN C   3      33.929  67.085  13.397  1.00 27.65    -0.578 OA
HETATM   18  O2S SGN C   3      34.985  69.230  12.857  1.00 27.72    -0.578 OA
HETATM   19  O3S SGN C   3      32.534  68.943  12.622  1.00 28.50    -0.578 OA
ENDBRANCH  14  16
ENDBRANCH   9  14
BRANCH  10  20
HETATM   20  O3  SGN C   3      33.471  71.550  13.593  1.00 34.89    -0.391 OA
ATOM     21  H3  SGN C   3      33.012  70.855  13.135  1.00  0.00     0.210 HD
ENDBRANCH  10  20
BRANCH  11  22
HETATM   22  O4  SGN C   3      33.273  73.733  15.557  1.00 37.13    -0.348 OA
BRANCH  22  23
HETATM   23  C1  UAP C   4      32.854  74.682  14.637  1.00 39.64     0.294 C 
HETATM   24  C2  UAP C   4      33.518  76.016  14.924  1.00 38.70     0.228 C 
HETATM   25  C3  UAP C   4      32.983  77.083  13.973  1.00 38.51     0.156 C 
HETATM   26  C4  UAP C   4      32.814  76.579  12.465  1.00 38.14     0.077 C 
HETATM   27  C5  UAP C   4      32.964  75.196  12.288  1.00 38.51     0.228 C 
HETATM   28  O5  UAP C   4      33.246  74.236  13.345  1.00 37.46    -0.343 OA
BRANCH  24  29
HETATM   29  O2  UAP C   4      33.205  76.451  16.286  1.00 40.54    -0.244 OA
BRANCH  29  30
HETATM   30  S   UAP C   4      34.357  76.958  17.276  1.00 40.49     0.252 S 
HETATM   31  O1S UAP C   4      34.784  75.794  18.067  1.00 40.89    -0.572 OA
HETATM   32  O2S UAP C   4      33.760  78.000  18.124  1.00 37.88    -0.572 OA
HETATM   33  O3S UAP C   4      35.446  77.484  16.438  1.00 37.47    -0.572 OA
ENDBRANCH  29  30
ENDBRANCH  24  29
BRANCH  25  34
HETATM   34  O3  UAP C   4      33.854  78.203  13.998  1.00 38.58    -0.393 OA
ATOM     35  H3  UAP C   4      34.411  78.178  13.229  1.00  0.00     0.210 HD
ENDBRANCH  25  34
BRANCH  27  36
HETATM   36  C6  UAP C   4      32.880  74.547  10.950  1.00 37.96     0.203 C 
HETATM   37  O6A UAP C   4      32.929  73.302  10.896  1.00 40.05    -0.646 OA
HETATM   38  O6B UAP C   4      32.769  75.278   9.944  1.00 36.71    -0.646 OA
ENDBRANCH  27  36
ENDBRANCH  22  23
ENDBRANCH  11  22
BRANCH  12  39
HETATM   39  C6  SGN C   3      31.256  73.251  17.691  1.00 42.65     0.227 C 
BRANCH  39  40
HETATM   40  O6  SGN C   3      32.139  74.082  18.476  1.00 51.09    -0.254 OA
BRANCH  40  41
HETATM   41  S2  SGN C   3      31.443  75.038  19.548  1.00 54.80     0.251 S 
HETATM   42  O4S SGN C   3      32.441  75.327  20.595  1.00 54.99    -0.572 OA
HETATM   43  O5S SGN C   3      30.271  74.289  20.091  1.00 53.99    -0.572 OA
HETATM   44  O6S SGN C   3      31.039  76.245  18.839  1.00 55.43    -0.572 OA
ENDBRANCH  40  41
ENDBRANCH  39  40
ENDBRANCH  12  39
ENDBRANCH   7   8
ENDBRANCH   4   7
BRANCH   3  45
HETATM   45  O3  IDS C   2      33.232  66.476  17.828  1.00 39.65    -0.390 OA
ATOM     46  H3  IDS C   2      33.082  66.665  16.910  1.00  0.00     0.210 HD
ENDBRANCH   3  45
BRANCH   5  47
HETATM   47  C6  IDS C   2      33.245  70.857  20.154  1.00 36.10     0.206 C 
HETATM   48  O6A IDS C   2      32.046  71.079  20.432  1.00 32.44    -0.646 OA
HETATM   49  O6B IDS C   2      34.114  71.753  20.028  1.00 33.44    -0.646 OA
ENDBRANCH   5  47
BRANCH   2  50
HETATM   50  O2  IDS C   2      35.460  65.770  19.352  1.00 43.59    -0.244 OA
BRANCH  50  51
HETATM   51  S   IDS C   2      35.026  64.365  19.972  1.00 44.11     0.252 S 
HETATM   52  O1S IDS C   2      36.280  63.550  20.119  1.00 44.48    -0.572 OA
HETATM   53  O2S IDS C   2      34.070  63.750  19.027  1.00 44.29    -0.572 OA
HETATM   54  O3S IDS C   2      34.409  64.644  21.256  1.00 44.74    -0.572 OA
ENDBRANCH  50  51
ENDBRANCH   2  50
BRANCH   1  55
HETATM   55  O4  SGN C   1      35.712  67.805  21.663  1.00 44.73    -0.348 OA
BRANCH  55  56
HETATM   56  C4  SGN C   1      36.976  68.089  22.302  1.00 48.25     0.186 C 
HETATM   57  C3  SGN C   1      37.025  69.563  22.722  1.00 48.43     0.178 C 
HETATM   58  C2  SGN C   1      38.290  69.836  23.535  1.00 48.58     0.181 C 
HETATM   59  C1  SGN C   1      38.425  68.864  24.706  1.00 50.40     0.283 C 
HETATM   60  O5  SGN C   1      38.373  67.513  24.234  1.00 50.82    -0.349 OA
HETATM   61  C5  SGN C   1      37.139  67.201  23.547  1.00 51.58     0.181 C 
BRANCH  57  62
HETATM   62  O3  SGN C   1      37.018  70.395  21.573  1.00 46.09    -0.391 OA
ATOM     63  H3  SGN C   1      37.261  71.279  21.824  1.00  0.00     0.210 HD
ENDBRANCH  57  62
BRANCH  58  64
HETATM   64  N2  SGN C   1      38.290  71.197  24.029  1.00 48.56    -0.289 N 
ATOM     65  H2  SGN C   1      37.576  71.553  24.664  1.00  0.00     0.175 HD
BRANCH  64  66
HETATM   66  S1  SGN C   1      39.543  72.128  23.481  1.00 47.67     0.205 S 
HETATM   67  O1S SGN C   1      40.727  71.768  24.292  1.00 47.59    -0.578 OA
HETATM   68  O2S SGN C   1      39.120  73.516  23.692  1.00 48.55    -0.578 OA
HETATM   69  O3S SGN C   1      39.720  71.800  22.049  1.00 47.08    -0.578 OA
ENDBRANCH  64  66
ENDBRANCH  58  64
BRANCH  59  70
HETATM   70  O1  SGN C   1      37.387  69.061  25.604  1.00 51.36    -0.369 OA
ATOM     71  H1  SGN C   1      36.585  68.688  25.258  1.00  0.00     0.212 HD
ENDBRANCH  59  70
BRANCH  61  72
HETATM   72  C6  SGN C   1      37.192  65.732  23.210  1.00 55.48     0.227 C 
BRANCH  72  73
HETATM   73  O6  SGN C   1      37.350  64.964  24.423  1.00 61.59    -0.254 OA
BRANCH  73  74
HETATM   74  S2  SGN C   1      38.758  64.234  24.582  1.00 65.98     0.251 S 
HETATM   75  O4S SGN C   1      39.495  64.922  25.733  1.00 65.09    -0.572 OA
HETATM   76  O5S SGN C   1      39.454  64.398  23.319  1.00 65.58    -0.572 OA
HETATM   77  O6S SGN C   1      38.465  62.732  24.893  1.00 65.84    -0.572 OA
ENDBRANCH  73  74
ENDBRANCH  72  73
ENDBRANCH  61  72
ENDBRANCH  55  56
ENDBRANCH   1  55
TORSDOF 27
ENDMDL
MODEL 50
REMARK VINA RESULT:      -5.5     14.548     20.437
REMARK  27 active torsions:
REMARK  status: ('A' for Active; 'I' for Inactive)
REMARK    1  A    between atoms: C1_1  and  O1_2 
REMARK    2  A    between atoms: S1_5  and  N2_7 
REMARK    3  A    between atoms: C2_6  and  N2_7 
REMARK    4  A    between atoms: S2_10  and  O6_22 
REMARK    5  A    between atoms: C3_11  and  O3_12 
REMARK    6  A    between atoms: C4_15  and  O4_16 
REMARK    7  A    between atoms: O4_16  and  C1_24 
REMARK    8  A    between atoms: C5_18  and  C6_21 
REMARK    9  A    between atoms: C6_21  and  O6_22 
REMARK   10  A    between atoms: C2_26  and  O2_27 
REMARK   11  A    between atoms: O2_27  and  S_40 
REMARK   12  A    between atoms: C3_29  and  O3_30 
REMARK   13  A    between atoms: C4_33  and  O4_34 
REMARK   14  A    between atoms: O4_34  and  C1_41 
REMARK   15  A    between atoms: C5_35  and  C6_37 
REMARK   16  A    between atoms: S1_43  and  N2_45 
REMARK   17  A    between atoms: C2_44  and  N2_45 
REMARK   18  A    between atoms: S2_48  and  O6_60 
REMARK   19  A    between atoms: C3_49  and  O3_50 
REMARK   20  A    between atoms: C4_53  and  O4_54 
REMARK   21  A    between atoms: O4_54  and  C1_62 
REMARK   22  A    between atoms: C5_56  and  C6_59 
REMARK   23  A    between atoms: C6_59  and  O6_60 
REMARK   24  A    between atoms: C2_64  and  O2_65 
REMARK   25  A    between atoms: O2_65  and  S_77 
REMARK   26  A    between atoms: C3_67  and  O3_68 
REMARK   27  A    between atoms: C5_72  and  C6_74 
ROOT
HETATM    1  C1  IDS C   2      22.654  81.319  10.999  1.00 40.81     0.294 C 
HETATM    2  C2  IDS C   2      23.436  80.003  11.042  1.00 40.20     0.231 C 
HETATM    3  C3  IDS C   2      23.626  79.431   9.640  1.00 39.01     0.185 C 
HETATM    4  C4  IDS C   2      22.266  79.151   8.969  1.00 37.65     0.195 C 
HETATM    5  C5  IDS C   2      21.169  79.981   9.648  1.00 35.99     0.257 C 
HETATM    6  O5  IDS C   2      21.672  81.307   9.940  1.00 39.00    -0.340 OA
ENDROOT
BRANCH   4   7
HETATM    7  O4  IDS C   2      22.337  79.479   7.559  1.00 35.98    -0.348 OA
BRANCH   7   8
HETATM    8  C1  SGN C   3      22.759  78.449   6.707  1.00 35.40     0.287 C 
HETATM    9  C2  SGN C   3      23.697  79.010   5.623  1.00 33.71     0.182 C 
HETATM   10  C3  SGN C   3      22.944  79.831   4.569  1.00 35.79     0.178 C 
HETATM   11  C4  SGN C   3      21.678  79.110   4.076  1.00 36.62     0.186 C 
HETATM   12  C5  SGN C   3      20.861  78.615   5.263  1.00 39.32     0.181 C 
HETATM   13  O5  SGN C   3      21.670  77.773   6.103  1.00 37.58    -0.349 OA
BRANCH   9  14
HETATM   14  N2  SGN C   3      24.699  79.851   6.239  1.00 29.28    -0.289 N 
ATOM     15  H2  SGN C   3      24.461  80.770   6.610  1.00  0.00     0.175 HD
BRANCH  14  16
HETATM   16  S1  SGN C   3      26.243  79.269   6.321  1.00 27.84     0.205 S 
HETATM   17  O1S SGN C   3      26.248  78.412   7.492  1.00 27.65    -0.578 OA
HETATM   18  O2S SGN C   3      27.108  80.474   6.484  1.00 27.72    -0.578 OA
HETATM   19  O3S SGN C   3      26.559  78.518   5.065  1.00 28.50    -0.578 OA
ENDBRANCH  14  16
ENDBRANCH   9  14
BRANCH  10  20
HETATM   20  O3  SGN C   3      23.811  80.103   3.471  1.00 34.89    -0.391 OA
ATOM     21  H3  SGN C   3      24.106  79.284   3.090  1.00  0.00     0.210 HD
ENDBRANCH  10  20
BRANCH  11  22
HETATM   22  O4  SGN C   3      20.873  80.033   3.320  1.00 37.13    -0.348 OA
BRANCH  22  23
HETATM   23  C1  UAP C   4      20.534  81.204   3.981  1.00 39.64     0.294 C 
HETATM   24  C2  UAP C   4      20.723  82.396   3.060  1.00 38.70     0.228 C 
HETATM   25  C3  UAP C   4      20.444  83.691   3.817  1.00 38.51     0.156 C 
HETATM   26  C4  UAP C   4      19.171  83.616   4.781  1.00 38.14     0.077 C 
HETATM   27  C5  UAP C   4      18.644  82.329   4.957  1.00 38.51     0.228 C 
HETATM   28  O5  UAP C   4      19.164  81.113   4.348  1.00 37.46    -0.343 OA
BRANCH  24  29
HETATM   29  O2  UAP C   4      22.109  82.455   2.592  1.00 40.54    -0.244 OA
BRANCH  29  30
HETATM   30  S   UAP C   4      22.456  82.398   1.030  1.00 40.49     0.252 S 
HETATM   31  O1S UAP C   4      23.367  81.260   0.836  1.00 40.89    -0.572 OA
HETATM   32  O2S UAP C   4      23.101  83.674   0.691  1.00 37.88    -0.572 OA
HETATM   33  O3S UAP C   4      21.185  82.213   0.312  1.00 37.47    -0.572 OA
ENDBRANCH  29  30
ENDBRANCH  24  29
BRANCH  25  34
HETATM   34  O3  UAP C   4      20.262  84.743   2.882  1.00 38.58    -0.393 OA
ATOM     35  H3  UAP C   4      21.073  84.874   2.403  1.00  0.00     0.210 HD
ENDBRANCH  25  34
BRANCH  27  36
HETATM   36  C6  UAP C   4      17.435  82.065   5.787  1.00 37.96     0.203 C 
HETATM   37  O6A UAP C   4      17.235  80.900   6.182  1.00 40.05    -0.646 OA
HETATM   38  O6B UAP C   4      16.676  83.023   6.047  1.00 36.71    -0.646 OA
ENDBRANCH  27  36
ENDBRANCH  22  23
ENDBRANCH  11  22
BRANCH  12  39
HETATM   39  C6  SGN C   3      19.641  77.822   4.886  1.00 42.65     0.227 C 
BRANCH  39  40
HETATM   40  O6  SGN C   3      20.089  76.861   3.905  1.00 51.09    -0.254 OA
BRANCH  40  41
HETATM   41  S2  SGN C   3      18.952  76.162   3.029  1.00 54.80     0.251 S 
HETATM   42  O4S SGN C   3      18.355  75.094   3.852  1.00 54.99    -0.572 OA
HETATM   43  O5S SGN C   3      19.626  75.614   1.814  1.00 53.99    -0.572 OA
HETATM   44  O6S SGN C   3      17.980  77.195   2.697  1.00 55.43    -0.572 OA
ENDBRANCH  40  41
ENDBRANCH  39  40
ENDBRANCH  12  39
ENDBRANCH   7   8
ENDBRANCH   4   7
BRANCH   3  45
HETATM   45  O3  IDS C   2      24.383  78.231   9.717  1.00 39.65    -0.390 OA
ATOM     46  H3  IDS C   2      25.301  78.426   9.575  1.00  0.00     0.210 HD
ENDBRANCH   3  45
BRANCH   5  47
HETATM   47  C6  IDS C   2      19.887  80.135   8.840  1.00 36.10     0.206 C 
HETATM   48  O6A IDS C   2      19.322  79.092   8.445  1.00 32.44    -0.646 OA
HETATM   49  O6B IDS C   2      19.454  81.293   8.625  1.00 33.44    -0.646 OA
ENDBRANCH   5  47
BRANCH   2  50
HETATM   50  O2  IDS C   2      24.753  80.234  11.623  1.00 43.59    -0.244 OA
BRANCH  50  51
HETATM   51  S   IDS C   2      25.209  79.395  12.902  1.00 44.11     0.252 S 
HETATM   52  O1S IDS C   2      24.891  77.955  12.612  1.00 44.48    -0.572 OA
HETATM   53  O2S IDS C   2      24.444  79.913  14.056  1.00 44.29    -0.572 OA
HETATM   54  O3S IDS C   2      26.636  79.611  13.061  1.00 44.74    -0.572 OA
ENDBRANCH  50  51
ENDBRANCH   2  50
BRANCH   1  55
HETATM   55  O4  SGN C   1      21.999  81.508  12.207  1.00 44.73    -0.348 OA
BRANCH  55  56
HETATM   56  C4  SGN C   1      21.377  82.791  12.438  1.00 48.25     0.186 C 
HETATM   57  C3  SGN C   1      19.887  82.597  12.744  1.00 48.43     0.178 C 
HETATM   58  C2  SGN C   1      19.255  83.931  13.142  1.00 48.58     0.181 C 
HETATM   59  C1  SGN C   1      20.027  84.602  14.276  1.00 50.40     0.283 C 
HETATM   60  O5  SGN C   1      21.406  84.750  13.915  1.00 50.82    -0.349 OA
HETATM   61  C5  SGN C   1      22.054  83.488  13.630  1.00 51.58     0.181 C 
BRANCH  57  62
HETATM   62  O3  SGN C   1      19.221  82.085  11.601  1.00 46.09    -0.391 OA
ATOM     63  H3  SGN C   1      18.285  82.059  11.769  1.00  0.00     0.210 HD
ENDBRANCH  57  62
BRANCH  58  64
HETATM   64  N2  SGN C   1      17.876  83.739  13.539  1.00 48.56    -0.289 N 
ATOM     65  H2  SGN C   1      17.605  83.139  14.319  1.00  0.00     0.175 HD
BRANCH  64  66
HETATM   66  S1  SGN C   1      16.775  84.570  12.626  1.00 47.67     0.205 S 
HETATM   67  O1S SGN C   1      15.437  84.225  13.155  1.00 47.59    -0.578 OA
HETATM   68  O2S SGN C   1      16.973  84.098  11.252  1.00 48.55    -0.578 OA
HETATM   69  O3S SGN C   1      17.092  86.006  12.784  1.00 47.08    -0.578 OA
ENDBRANCH  64  66
ENDBRANCH  58  64
BRANCH  59  70
HETATM   70  O1  SGN C   1      19.950  83.826  15.423  1.00 51.36    -0.369 OA
ATOM     71  H1  SGN C   1      19.327  84.208  16.030  1.00  0.00     0.212 HD
ENDBRANCH  59  70
BRANCH  61  72
HETATM   72  C6  SGN C   1      23.508  83.798  13.374  1.00 55.48     0.227 C 
BRANCH  72  73
HETATM   73  O6  SGN C   1      24.273  83.548  14.573  1.00 61.59    -0.254 OA
BRANCH  73  74
HETATM   74  S2  SGN C   1      25.814  83.944  14.487  1.00 65.98     0.251 S 
HETATM   75  O4S SGN C   1      25.942  85.026  13.411  1.00 65.09    -0.572 OA
HETATM   76  O5S SGN C   1      26.532  82.736  14.125  1.00 65.58    -0.572 OA
HETATM   77  O6S SGN C   1      26.233  84.471  15.895  1.00 65.84    -0.572 OA
ENDBRANCH  73  74
ENDBRANCH  72  73
ENDBRANCH  61  72
ENDBRANCH  55  56
ENDBRANCH   1  55
TORSDOF 27
ENDMDL
MODEL 51
REMARK VINA RESULT:      -5.5      7.795     12.879
REMARK  27 active torsions:
REMARK  status: ('A' for Active; 'I' for Inactive)
REMARK    1  A    between atoms: C1_1  and  O1_2 
REMARK    2  A    between atoms: S1_5  and  N2_7 
REMARK    3  A    between atoms: C2_6  and  N2_7 
REMARK    4  A    between atoms: S2_10  and  O6_22 
REMARK    5  A    between atoms: C3_11  and  O3_12 
REMARK    6  A    between atoms: C4_15  and  O4_16 
REMARK    7  A    between atoms: O4_16  and  C1_24 
REMARK    8  A    between atoms: C5_18  and  C6_21 
REMARK    9  A    between atoms: C6_21  and  O6_22 
REMARK   10  A    between atoms: C2_26  and  O2_27 
REMARK   11  A    between atoms: O2_27  and  S_40 
REMARK   12  A    between atoms: C3_29  and  O3_30 
REMARK   13  A    between atoms: C4_33  and  O4_34 
REMARK   14  A    between atoms: O4_34  and  C1_41 
REMARK   15  A    between atoms: C5_35  and  C6_37 
REMARK   16  A    between atoms: S1_43  and  N2_45 
REMARK   17  A    between atoms: C2_44  and  N2_45 
REMARK   18  A    between atoms: S2_48  and  O6_60 
REMARK   19  A    between atoms: C3_49  and  O3_50 
REMARK   20  A    between atoms: C4_53  and  O4_54 
REMARK   21  A    between atoms: O4_54  and  C1_62 
REMARK   22  A    between atoms: C5_56  and  C6_59 
REMARK   23  A    between atoms: C6_59  and  O6_60 
REMARK   24  A    between atoms: C2_64  and  O2_65 
REMARK   25  A    between atoms: O2_65  and  S_77 
REMARK   26  A    between atoms: C3_67  and  O3_68 
REMARK   27  A    between atoms: C5_72  and  C6_74 
ROOT
HETATM    1  C1  IDS C   2      31.982  72.246  13.881  1.00 40.81     0.294 C 
HETATM    2  C2  IDS C   2      31.110  73.016  12.886  1.00 40.20     0.231 C 
HETATM    3  C3  IDS C   2      30.416  72.065  11.914  1.00 39.01     0.185 C 
HETATM    4  C4  IDS C   2      31.447  71.251  11.107  1.00 37.65     0.195 C 
HETATM    5  C5  IDS C   2      32.791  71.234  11.846  1.00 35.99     0.257 C 
HETATM    6  O5  IDS C   2      32.565  71.076  13.267  1.00 39.00    -0.340 OA
ENDROOT
BRANCH   4   7
HETATM    7  O4  IDS C   2      30.966  69.896  10.921  1.00 35.98    -0.348 OA
BRANCH   7   8
HETATM    8  C1  SGN C   3      29.692  69.767  10.349  1.00 35.40     0.287 C 
HETATM    9  C2  SGN C   3      29.439  68.304   9.944  1.00 33.71     0.182 C 
HETATM   10  C3  SGN C   3      30.245  67.894   8.706  1.00 35.79     0.178 C 
HETATM   11  C4  SGN C   3      30.149  68.944   7.585  1.00 36.62     0.186 C 
HETATM   12  C5  SGN C   3      30.422  70.334   8.145  1.00 39.32     0.181 C 
HETATM   13  O5  SGN C   3      29.519  70.617   9.229  1.00 37.58    -0.349 OA
BRANCH   9  14
HETATM   14  N2  SGN C   3      29.796  67.431  11.041  1.00 29.28    -0.289 N 
ATOM     15  H2  SGN C   3      30.539  67.680  11.693  1.00  0.00     0.175 HD
BRANCH  14  16
HETATM   16  S1  SGN C   3      28.956  66.017  11.199  1.00 27.84     0.205 S 
HETATM   17  O1S SGN C   3      29.884  64.992  10.759  1.00 27.65    -0.578 OA
HETATM   18  O2S SGN C   3      27.779  66.157  10.292  1.00 27.72    -0.578 OA
HETATM   19  O3S SGN C   3      28.545  65.839  12.627  1.00 28.50    -0.578 OA
ENDBRANCH  14  16
ENDBRANCH   9  14
BRANCH  10  20
HETATM   20  O3  SGN C   3      29.783  66.631   8.234  1.00 34.89    -0.391 OA
ATOM     21  H3  SGN C   3      28.854  66.545   8.417  1.00  0.00     0.210 HD
ENDBRANCH  10  20
BRANCH  11  22
HETATM   22  O4  SGN C   3      31.137  68.653   6.580  1.00 37.13    -0.348 OA
BRANCH  22  23
HETATM   23  C1  UAP C   4      30.661  68.010   5.448  1.00 39.64     0.294 C 
HETATM   24  C2  UAP C   4      31.312  68.591   4.205  1.00 38.70     0.228 C 
HETATM   25  C3  UAP C   4      30.716  67.950   2.955  1.00 38.51     0.156 C 
HETATM   26  C4  UAP C   4      30.491  66.372   3.080  1.00 38.14     0.077 C 
HETATM   27  C5  UAP C   4      30.659  65.857   4.374  1.00 38.51     0.228 C 
HETATM   28  O5  UAP C   4      31.005  66.635   5.554  1.00 37.46    -0.343 OA
BRANCH  24  29
HETATM   29  O2  UAP C   4      31.049  70.029   4.125  1.00 40.54    -0.244 OA
BRANCH  29  30
HETATM   30  S   UAP C   4      32.245  71.076   3.941  1.00 40.49     0.252 S 
HETATM   31  O1S UAP C   4      32.839  70.820   2.620  1.00 40.89    -0.572 OA
HETATM   32  O2S UAP C   4      33.204  70.821   5.026  1.00 37.88    -0.572 OA
HETATM   33  O3S UAP C   4      31.658  72.423   4.028  1.00 37.47    -0.572 OA
ENDBRANCH  29  30
ENDBRANCH  24  29
BRANCH  25  34
HETATM   34  O3  UAP C   4      31.565  68.216   1.850  1.00 38.58    -0.393 OA
ATOM     35  H3  UAP C   4      31.151  68.863   1.291  1.00  0.00     0.210 HD
ENDBRANCH  25  34
BRANCH  27  36
HETATM   36  C6  UAP C   4      30.531  64.405   4.679  1.00 37.96     0.203 C 
HETATM   37  O6A UAP C   4      29.510  63.808   4.284  1.00 40.05    -0.646 OA
HETATM   38  O6B UAP C   4      31.451  63.851   5.319  1.00 36.71    -0.646 OA
ENDBRANCH  27  36
ENDBRANCH  22  23
ENDBRANCH  11  22
BRANCH  12  39
HETATM   39  C6  SGN C   3      30.270  71.444   7.142  1.00 42.65     0.227 C 
BRANCH  39  40
HETATM   40  O6  SGN C   3      31.329  72.381   7.434  1.00 51.09    -0.254 OA
BRANCH  40  41
HETATM   41  S2  SGN C   3      30.877  73.827   7.935  1.00 54.80     0.251 S 
HETATM   42  O4S SGN C   3      29.428  73.770   8.199  1.00 54.99    -0.572 OA
HETATM   43  O5S SGN C   3      31.203  74.782   6.833  1.00 53.99    -0.572 OA
HETATM   44  O6S SGN C   3      31.636  74.111   9.146  1.00 55.43    -0.572 OA
ENDBRANCH  40  41
ENDBRANCH  39  40
ENDBRANCH  12  39
ENDBRANCH   7   8
ENDBRANCH   4   7
BRANCH   3  45
HETATM   45  O3  IDS C   2      29.590  72.811  11.030  1.00 39.65    -0.390 OA
ATOM     46  H3  IDS C   2      29.254  73.576  11.480  1.00  0.00     0.210 HD
ENDBRANCH   3  45
BRANCH   5  47
HETATM   47  C6  IDS C   2      33.755  70.142  11.402  1.00 36.10     0.206 C 
HETATM   48  O6A IDS C   2      34.216  70.212  10.241  1.00 32.44    -0.646 OA
HETATM   49  O6B IDS C   2      34.051  69.240  12.221  1.00 33.44    -0.646 OA
ENDBRANCH   5  47
BRANCH   2  50
HETATM   50  O2  IDS C   2      30.084  73.761  13.606  1.00 43.59    -0.244 OA
BRANCH  50  51
HETATM   51  S   IDS C   2      30.134  75.356  13.623  1.00 44.11     0.252 S 
HETATM   52  O1S IDS C   2      30.787  75.784  12.340  1.00 44.48    -0.572 OA
HETATM   53  O2S IDS C   2      30.923  75.752  14.809  1.00 44.29    -0.572 OA
HETATM   54  O3S IDS C   2      28.761  75.819  13.711  1.00 44.74    -0.572 OA
ENDBRANCH  50  51
ENDBRANCH   2  50
BRANCH   1  55
HETATM   55  O4  SGN C   1      33.007  73.067  14.329  1.00 44.73    -0.348 OA
BRANCH  55  56
HETATM   56  C4  SGN C   1      33.406  72.946  15.712  1.00 48.25     0.186 C 
HETATM   57  C3  SGN C   1      32.214  72.478  16.557  1.00 48.43     0.178 C 
HETATM   58  C2  SGN C   1      32.664  72.198  17.990  1.00 48.58     0.181 C 
HETATM   59  C1  SGN C   1      33.851  71.237  18.028  1.00 50.40     0.283 C 
HETATM   60  O5  SGN C   1      34.921  71.743  17.220  1.00 50.82    -0.349 OA
HETATM   61  C5  SGN C   1      34.547  71.922  15.834  1.00 51.58     0.181 C 
BRANCH  57  62
HETATM   62  O3  SGN C   1      31.207  73.478  16.568  1.00 46.09    -0.391 OA
ATOM     63  H3  SGN C   1      30.831  73.533  17.439  1.00  0.00     0.210 HD
ENDBRANCH  57  62
BRANCH  58  64
HETATM   64  N2  SGN C   1      31.570  71.651  18.766  1.00 48.56    -0.289 N 
ATOM     65  H2  SGN C   1      30.769  71.188  18.338  1.00  0.00     0.175 HD
BRANCH  64  66
HETATM   66  S1  SGN C   1      31.727  71.839  20.402  1.00 47.67     0.205 S 
HETATM   67  O1S SGN C   1      30.357  71.920  20.954  1.00 47.59    -0.578 OA
HETATM   68  O2S SGN C   1      32.478  73.086  20.582  1.00 48.55    -0.578 OA
HETATM   69  O3S SGN C   1      32.465  70.656  20.896  1.00 47.08    -0.578 OA
ENDBRANCH  64  66
ENDBRANCH  58  64
BRANCH  59  70
HETATM   70  O1  SGN C   1      33.471  69.998  17.535  1.00 51.36    -0.369 OA
ATOM     71  H1  SGN C   1      34.202  69.393  17.581  1.00  0.00     0.212 HD
ENDBRANCH  59  70
BRANCH  61  72
HETATM   72  C6  SGN C   1      35.794  72.351  15.103  1.00 55.48     0.227 C 
BRANCH  72  73
HETATM   73  O6  SGN C   1      35.927  71.588  13.885  1.00 61.59    -0.254 OA
BRANCH  73  74
HETATM   74  S2  SGN C   1      36.615  72.361  12.673  1.00 65.98     0.251 S 
HETATM   75  O4S SGN C   1      37.792  73.149  13.251  1.00 65.09    -0.572 OA
HETATM   76  O5S SGN C   1      35.602  73.236  12.112  1.00 65.58    -0.572 OA
HETATM   77  O6S SGN C   1      37.084  71.283  11.646  1.00 65.84    -0.572 OA
ENDBRANCH  73  74
ENDBRANCH  72  73
ENDBRANCH  61  72
ENDBRANCH  55  56
ENDBRANCH   1  55
TORSDOF 27
ENDMDL
MODEL 52
REMARK VINA RESULT:      -5.5      4.479     11.607
REMARK  27 active torsions:
REMARK  status: ('A' for Active; 'I' for Inactive)
REMARK    1  A    between atoms: C1_1  and  O1_2 
REMARK    2  A    between atoms: S1_5  and  N2_7 
REMARK    3  A    between atoms: C2_6  and  N2_7 
REMARK    4  A    between atoms: S2_10  and  O6_22 
REMARK    5  A    between atoms: C3_11  and  O3_12 
REMARK    6  A    between atoms: C4_15  and  O4_16 
REMARK    7  A    between atoms: O4_16  and  C1_24 
REMARK    8  A    between atoms: C5_18  and  C6_21 
REMARK    9  A    between atoms: C6_21  and  O6_22 
REMARK   10  A    between atoms: C2_26  and  O2_27 
REMARK   11  A    between atoms: O2_27  and  S_40 
REMARK   12  A    between atoms: C3_29  and  O3_30 
REMARK   13  A    between atoms: C4_33  and  O4_34 
REMARK   14  A    between atoms: O4_34  and  C1_41 
REMARK   15  A    between atoms: C5_35  and  C6_37 
REMARK   16  A    between atoms: S1_43  and  N2_45 
REMARK   17  A    between atoms: C2_44  and  N2_45 
REMARK   18  A    between atoms: S2_48  and  O6_60 
REMARK   19  A    between atoms: C3_49  and  O3_50 
REMARK   20  A    between atoms: C4_53  and  O4_54 
REMARK   21  A    between atoms: O4_54  and  C1_62 
REMARK   22  A    between atoms: C5_56  and  C6_59 
REMARK   23  A    between atoms: C6_59  and  O6_60 
REMARK   24  A    between atoms: C2_64  and  O2_65 
REMARK   25  A    between atoms: O2_65  and  S_77 
REMARK   26  A    between atoms: C3_67  and  O3_68 
REMARK   27  A    between atoms: C5_72  and  C6_74 
ROOT
HETATM    1  C1  IDS C   2      35.531  67.748  19.946  1.00 40.81     0.294 C 
HETATM    2  C2  IDS C   2      36.424  68.830  19.335  1.00 40.20     0.231 C 
HETATM    3  C3  IDS C   2      35.687  69.594  18.238  1.00 39.01     0.185 C 
HETATM    4  C4  IDS C   2      35.249  68.647  17.103  1.00 37.65     0.195 C 
HETATM    5  C5  IDS C   2      35.202  67.203  17.619  1.00 35.99     0.257 C 
HETATM    6  O5  IDS C   2      34.646  67.180  18.955  1.00 39.00    -0.340 OA
ENDROOT
BRANCH   4   7
HETATM    7  O4  IDS C   2      33.943  69.040  16.611  1.00 35.98    -0.348 OA
BRANCH   7   8
HETATM    8  C1  SGN C   3      33.877  70.285  15.969  1.00 35.40     0.287 C 
HETATM    9  C2  SGN C   3      32.408  70.702  15.774  1.00 33.71     0.182 C 
HETATM   10  C3  SGN C   3      31.711  69.887  14.680  1.00 35.79     0.178 C 
HETATM   11  C4  SGN C   3      32.569  69.780  13.407  1.00 36.62     0.186 C 
HETATM   12  C5  SGN C   3      33.989  69.362  13.767  1.00 39.32     0.181 C 
HETATM   13  O5  SGN C   3      34.549  70.281  14.722  1.00 37.58    -0.349 OA
BRANCH   9  14
HETATM   14  N2  SGN C   3      31.688  70.526  17.016  1.00 29.28    -0.289 N 
ATOM     15  H2  SGN C   3      31.171  69.669  17.209  1.00  0.00     0.175 HD
BRANCH  14  16
HETATM   16  S1  SGN C   3      31.732  71.764  18.109  1.00 27.84     0.205 S 
HETATM   17  O1S SGN C   3      30.727  71.413  19.096  1.00 27.65    -0.578 OA
HETATM   18  O2S SGN C   3      31.374  72.987  17.332  1.00 27.72    -0.578 OA
HETATM   19  O3S SGN C   3      33.104  71.857  18.701  1.00 28.50    -0.578 OA
ENDBRANCH  14  16
ENDBRANCH   9  14
BRANCH  10  20
HETATM   20  O3  SGN C   3      30.452  70.482  14.372  1.00 34.89    -0.391 OA
ATOM     21  H3  SGN C   3      29.795  70.163  14.980  1.00  0.00     0.210 HD
ENDBRANCH  10  20
BRANCH  11  22
HETATM   22  O4  SGN C   3      32.004  68.782  12.538  1.00 37.13    -0.348 OA
BRANCH  22  23
HETATM   23  C1  UAP C   4      31.455  69.264  11.360  1.00 39.64     0.294 C 
HETATM   24  C2  UAP C   4      30.285  68.395  10.936  1.00 38.70     0.228 C 
HETATM   25  C3  UAP C   4      29.743  68.867   9.589  1.00 38.51     0.156 C 
HETATM   26  C4  UAP C   4      29.653  70.457   9.449  1.00 38.14     0.077 C 
HETATM   27  C5  UAP C   4      30.285  71.173  10.476  1.00 38.51     0.228 C 
HETATM   28  O5  UAP C   4      30.988  70.584  11.607  1.00 37.46    -0.343 OA
BRANCH  24  29
HETATM   29  O2  UAP C   4      30.723  67.008  10.766  1.00 40.54    -0.244 OA
BRANCH  29  30
HETATM   30  S   UAP C   4      29.705  65.790  10.972  1.00 40.49     0.252 S 
HETATM   31  O1S UAP C   4      29.195  65.429   9.641  1.00 40.89    -0.572 OA
HETATM   32  O2S UAP C   4      28.632  66.278  11.850  1.00 37.88    -0.572 OA
HETATM   33  O3S UAP C   4      30.466  64.690  11.587  1.00 37.47    -0.572 OA
ENDBRANCH  29  30
ENDBRANCH  24  29
BRANCH  25  34
HETATM   34  O3  UAP C   4      28.456  68.305   9.387  1.00 38.58    -0.393 OA
ATOM     35  H3  UAP C   4      28.086  68.660   8.587  1.00  0.00     0.210 HD
ENDBRANCH  25  34
BRANCH  27  36
HETATM   36  C6  UAP C   4      30.273  72.661  10.539  1.00 37.96     0.203 C 
HETATM   37  O6A UAP C   4      30.237  73.202  11.662  1.00 40.05    -0.646 OA
HETATM   38  O6B UAP C   4      30.296  73.298   9.465  1.00 36.71    -0.646 OA
ENDBRANCH  27  36
ENDBRANCH  22  23
ENDBRANCH  11  22
BRANCH  12  39
HETATM   39  C6  SGN C   3      34.932  69.310  12.598  1.00 42.65     0.227 C 
BRANCH  39  40
HETATM   40  O6  SGN C   3      35.692  68.093  12.762  1.00 51.09    -0.254 OA
BRANCH  40  41
HETATM   41  S2  SGN C   3      37.238  68.267  13.117  1.00 54.80     0.251 S 
HETATM   42  O4S SGN C   3      38.004  67.427  12.178  1.00 54.99    -0.572 OA
HETATM   43  O5S SGN C   3      37.405  67.813  14.530  1.00 53.99    -0.572 OA
HETATM   44  O6S SGN C   3      37.553  69.681  12.957  1.00 55.43    -0.572 OA
ENDBRANCH  40  41
ENDBRANCH  39  40
ENDBRANCH  12  39
ENDBRANCH   7   8
ENDBRANCH   4   7
BRANCH   3  45
HETATM   45  O3  IDS C   2      36.533  70.610  17.718  1.00 39.65    -0.390 OA
ATOM     46  H3  IDS C   2      37.438  70.403  17.919  1.00  0.00     0.210 HD
ENDBRANCH   3  45
BRANCH   5  47
HETATM   47  C6  IDS C   2      34.393  66.239  16.761  1.00 36.10     0.206 C 
HETATM   48  O6A IDS C   2      34.713  66.127  15.557  1.00 32.44    -0.646 OA
HETATM   49  O6B IDS C   2      33.462  65.597  17.302  1.00 33.44    -0.646 OA
ENDBRANCH   5  47
BRANCH   2  50
HETATM   50  O2  IDS C   2      36.819  69.781  20.366  1.00 43.59    -0.244 OA
BRANCH  50  51
HETATM   51  S   IDS C   2      38.367  69.989  20.695  1.00 44.11     0.252 S 
HETATM   52  O1S IDS C   2      38.440  70.629  22.052  1.00 44.48    -0.572 OA
HETATM   53  O2S IDS C   2      38.922  70.860  19.637  1.00 44.29    -0.572 OA
HETATM   54  O3S IDS C   2      38.981  68.673  20.685  1.00 44.74    -0.572 OA
ENDBRANCH  50  51
ENDBRANCH   2  50
BRANCH   1  55
HETATM   55  O4  SGN C   1      36.322  66.733  20.465  1.00 44.73    -0.348 OA
BRANCH  55  56
HETATM   56  C4  SGN C   1      35.755  65.905  21.503  1.00 48.25     0.186 C 
HETATM   57  C3  SGN C   1      35.661  64.453  21.016  1.00 48.43     0.178 C 
HETATM   58  C2  SGN C   1      35.208  63.545  22.159  1.00 48.58     0.181 C 
HETATM   59  C1  SGN C   1      36.090  63.716  23.395  1.00 50.40     0.283 C 
HETATM   60  O5  SGN C   1      36.126  65.093  23.789  1.00 50.82    -0.349 OA
HETATM   61  C5  SGN C   1      36.645  65.963  22.756  1.00 51.58     0.181 C 
BRANCH  57  62
HETATM   62  O3  SGN C   1      34.732  64.361  19.948  1.00 46.09    -0.391 OA
ATOM     63  H3  SGN C   1      35.152  64.637  19.142  1.00  0.00     0.210 HD
ENDBRANCH  57  62
BRANCH  58  64
HETATM   64  N2  SGN C   1      35.223  62.159  21.739  1.00 48.56    -0.289 N 
ATOM     65  H2  SGN C   1      36.076  61.677  21.457  1.00  0.00     0.175 HD
BRANCH  64  66
HETATM   66  S1  SGN C   1      33.742  61.420  21.754  1.00 47.67     0.205 S 
HETATM   67  O1S SGN C   1      32.972  61.989  20.627  1.00 47.59    -0.578 OA
HETATM   68  O2S SGN C   1      33.155  61.750  23.057  1.00 48.55    -0.578 OA
HETATM   69  O3S SGN C   1      33.990  59.971  21.594  1.00 47.08    -0.578 OA
ENDBRANCH  64  66
ENDBRANCH  58  64
BRANCH  59  70
HETATM   70  O1  SGN C   1      37.383  63.301  23.113  1.00 51.36    -0.369 OA
ATOM     71  H1  SGN C   1      37.411  62.889  22.258  1.00  0.00     0.212 HD
ENDBRANCH  59  70
BRANCH  61  72
HETATM   72  C6  SGN C   1      36.719  67.346  23.354  1.00 55.48     0.227 C 
BRANCH  72  73
HETATM   73  O6  SGN C   1      36.211  67.315  24.705  1.00 61.59    -0.254 OA
BRANCH  73  74
HETATM   74  S2  SGN C   1      34.825  68.071  24.923  1.00 65.98     0.251 S 
HETATM   75  O4S SGN C   1      35.124  69.342  25.722  1.00 65.09    -0.572 OA
HETATM   76  O5S SGN C   1      33.968  67.160  25.660  1.00 65.58    -0.572 OA
HETATM   77  O6S SGN C   1      34.249  68.395  23.508  1.00 65.84    -0.572 OA
ENDBRANCH  73  74
ENDBRANCH  72  73
ENDBRANCH  61  72
ENDBRANCH  55  56
ENDBRANCH   1  55
TORSDOF 27
ENDMDL
MODEL 53
REMARK VINA RESULT:      -5.5      4.575      8.747
REMARK  27 active torsions:
REMARK  status: ('A' for Active; 'I' for Inactive)
REMARK    1  A    between atoms: C1_1  and  O1_2 
REMARK    2  A    between atoms: S1_5  and  N2_7 
REMARK    3  A    between atoms: C2_6  and  N2_7 
REMARK    4  A    between atoms: S2_10  and  O6_22 
REMARK    5  A    between atoms: C3_11  and  O3_12 
REMARK    6  A    between atoms: C4_15  and  O4_16 
REMARK    7  A    between atoms: O4_16  and  C1_24 
REMARK    8  A    between atoms: C5_18  and  C6_21 
REMARK    9  A    between atoms: C6_21  and  O6_22 
REMARK   10  A    between atoms: C2_26  and  O2_27 
REMARK   11  A    between atoms: O2_27  and  S_40 
REMARK   12  A    between atoms: C3_29  and  O3_30 
REMARK   13  A    between atoms: C4_33  and  O4_34 
REMARK   14  A    between atoms: O4_34  and  C1_41 
REMARK   15  A    between atoms: C5_35  and  C6_37 
REMARK   16  A    between atoms: S1_43  and  N2_45 
REMARK   17  A    between atoms: C2_44  and  N2_45 
REMARK   18  A    between atoms: S2_48  and  O6_60 
REMARK   19  A    between atoms: C3_49  and  O3_50 
REMARK   20  A    between atoms: C4_53  and  O4_54 
REMARK   21  A    between atoms: O4_54  and  C1_62 
REMARK   22  A    between atoms: C5_56  and  C6_59 
REMARK   23  A    between atoms: C6_59  and  O6_60 
REMARK   24  A    between atoms: C2_64  and  O2_65 
REMARK   25  A    between atoms: O2_65  and  S_77 
REMARK   26  A    between atoms: C3_67  and  O3_68 
REMARK   27  A    between atoms: C5_72  and  C6_74 
ROOT
HETATM    1  C1  IDS C   2      31.080  72.139  12.815  1.00 40.81     0.294 C 
HETATM    2  C2  IDS C   2      30.452  73.337  13.531  1.00 40.20     0.231 C 
HETATM    3  C3  IDS C   2      31.345  73.826  14.668  1.00 39.01     0.185 C 
HETATM    4  C4  IDS C   2      31.568  72.714  15.713  1.00 37.65     0.195 C 
HETATM    5  C5  IDS C   2      31.291  71.343  15.083  1.00 35.99     0.257 C 
HETATM    6  O5  IDS C   2      31.822  71.310  13.736  1.00 39.00    -0.340 OA
ENDROOT
BRANCH   4   7
HETATM    7  O4  IDS C   2      32.931  72.768  16.204  1.00 35.98    -0.348 OA
BRANCH   7   8
HETATM    8  C1  SGN C   3      33.290  73.932  16.899  1.00 35.40     0.287 C 
HETATM    9  C2  SGN C   3      34.764  73.856  17.333  1.00 33.71     0.182 C 
HETATM   10  C3  SGN C   3      34.982  72.872  18.488  1.00 35.79     0.178 C 
HETATM   11  C4  SGN C   3      33.945  73.062  19.609  1.00 36.62     0.186 C 
HETATM   12  C5  SGN C   3      32.542  73.120  19.019  1.00 39.32     0.181 C 
HETATM   13  O5  SGN C   3      32.464  74.159  18.027  1.00 37.58    -0.349 OA
BRANCH   9  14
HETATM   14  N2  SGN C   3      35.577  73.443  16.210  1.00 29.28    -0.289 N 
ATOM     15  H2  SGN C   3      35.402  72.561  15.728  1.00  0.00     0.175 HD
BRANCH  14  16
HETATM   16  S1  SGN C   3      36.799  74.449  15.737  1.00 27.84     0.205 S 
HETATM   17  O1S SGN C   3      37.833  74.263  16.738  1.00 27.65    -0.578 OA
HETATM   18  O2S SGN C   3      36.210  75.820  15.765  1.00 27.72    -0.578 OA
HETATM   19  O3S SGN C   3      37.258  74.064  14.366  1.00 28.50    -0.578 OA
ENDBRANCH  14  16
ENDBRANCH   9  14
BRANCH  10  20
HETATM   20  O3  SGN C   3      36.300  73.033  19.008  1.00 34.89    -0.391 OA
ATOM     21  H3  SGN C   3      36.706  72.180  19.112  1.00  0.00     0.210 HD
ENDBRANCH  10  20
BRANCH  11  22
HETATM   22  O4  SGN C   3      34.016  71.946  20.513  1.00 37.13    -0.348 OA
BRANCH  22  23
HETATM   23  C1  UAP C   4      34.752  70.862  20.061  1.00 39.64     0.294 C 
HETATM   24  C2  UAP C   4      35.666  70.355  21.162  1.00 38.70     0.228 C 
HETATM   25  C3  UAP C   4      36.545  69.224  20.633  1.00 38.51     0.156 C 
HETATM   26  C4  UAP C   4      35.771  68.188  19.693  1.00 38.14     0.077 C 
HETATM   27  C5  UAP C   4      34.481  68.588  19.317  1.00 38.51     0.228 C 
HETATM   28  O5  UAP C   4      33.835  69.834  19.708  1.00 37.46    -0.343 OA
BRANCH  24  29
HETATM   29  O2  UAP C   4      36.558  71.427  21.608  1.00 40.54    -0.244 OA
BRANCH  29  30
HETATM   30  S   UAP C   4      36.801  71.701  23.166  1.00 40.49     0.252 S 
HETATM   31  O1S UAP C   4      37.753  72.818  23.261  1.00 40.89    -0.572 OA
HETATM   32  O2S UAP C   4      37.358  70.464  23.734  1.00 37.88    -0.572 OA
HETATM   33  O3S UAP C   4      35.496  72.040  23.755  1.00 37.47    -0.572 OA
ENDBRANCH  29  30
ENDBRANCH  24  29
BRANCH  25  34
HETATM   34  O3  UAP C   4      37.111  68.528  21.732  1.00 38.58    -0.393 OA
ATOM     35  H3  UAP C   4      38.050  68.459  21.604  1.00  0.00     0.210 HD
ENDBRANCH  25  34
BRANCH  27  36
HETATM   36  C6  UAP C   4      33.592  67.738  18.477  1.00 37.96     0.203 C 
HETATM   37  O6A UAP C   4      32.442  67.498  18.893  1.00 40.05    -0.646 OA
HETATM   38  O6B UAP C   4      34.041  67.302  17.395  1.00 36.71    -0.646 OA
ENDBRANCH  27  36
ENDBRANCH  22  23
ENDBRANCH  11  22
BRANCH  12  39
HETATM   39  C6  SGN C   3      31.459  73.388  20.027  1.00 42.65     0.227 C 
BRANCH  39  40
HETATM   40  O6  SGN C   3      31.431  74.822  20.197  1.00 51.09    -0.254 OA
BRANCH  40  41
HETATM   41  S2  SGN C   3      29.990  75.508  20.187  1.00 54.80     0.251 S 
HETATM   42  O4S SGN C   3      30.096  76.768  20.944  1.00 54.99    -0.572 OA
HETATM   43  O5S SGN C   3      29.055  74.545  20.842  1.00 53.99    -0.572 OA
HETATM   44  O6S SGN C   3      29.643  75.744  18.792  1.00 55.43    -0.572 OA
ENDBRANCH  40  41
ENDBRANCH  39  40
ENDBRANCH  12  39
ENDBRANCH   7   8
ENDBRANCH   4   7
BRANCH   3  45
HETATM   45  O3  IDS C   2      30.748  74.957  15.287  1.00 39.65    -0.390 OA
ATOM     46  H3  IDS C   2      31.168  75.119  16.123  1.00  0.00     0.210 HD
ENDBRANCH   3  45
BRANCH   5  47
HETATM   47  C6  IDS C   2      31.870  70.157  15.842  1.00 36.10     0.206 C 
HETATM   48  O6A IDS C   2      32.862  69.579  15.345  1.00 32.44    -0.646 OA
HETATM   49  O6B IDS C   2      31.339  69.829  16.930  1.00 33.44    -0.646 OA
ENDBRANCH   5  47
BRANCH   2  50
HETATM   50  O2  IDS C   2      30.271  74.433  12.589  1.00 43.59    -0.244 OA
BRANCH  50  51
HETATM   51  S   IDS C   2      31.525  74.981  11.767  1.00 44.11     0.252 S 
HETATM   52  O1S IDS C   2      32.597  75.298  12.772  1.00 44.48    -0.572 OA
HETATM   53  O2S IDS C   2      31.073  76.184  11.037  1.00 44.29    -0.572 OA
HETATM   54  O3S IDS C   2      31.931  73.922  10.861  1.00 44.74    -0.572 OA
ENDBRANCH  50  51
ENDBRANCH   2  50
BRANCH   1  55
HETATM   55  O4  SGN C   1      30.080  71.370  12.236  1.00 44.73    -0.348 OA
BRANCH  55  56
HETATM   56  C4  SGN C   1      30.443  70.533  11.115  1.00 48.25     0.186 C 
HETATM   57  C3  SGN C   1      30.541  69.072  11.570  1.00 48.43     0.178 C 
HETATM   58  C2  SGN C   1      30.771  68.162  10.364  1.00 48.58     0.181 C 
HETATM   59  C1  SGN C   1      29.720  68.391   9.279  1.00 50.40     0.283 C 
HETATM   60  O5  SGN C   1      29.690  69.775   8.907  1.00 50.82    -0.349 OA
HETATM   61  C5  SGN C   1      29.376  70.651  10.014  1.00 51.58     0.181 C 
BRANCH  57  62
HETATM   62  O3  SGN C   1      31.616  68.920  12.483  1.00 46.09    -0.391 OA
ATOM     63  H3  SGN C   1      31.382  69.320  13.313  1.00  0.00     0.210 HD
ENDBRANCH  57  62
BRANCH  58  64
HETATM   64  N2  SGN C   1      30.755  66.771  10.770  1.00 48.56    -0.289 N 
ATOM     65  H2  SGN C   1      29.922  66.315  11.141  1.00  0.00     0.175 HD
BRANCH  64  66
HETATM   66  S1  SGN C   1      32.198  65.984  10.583  1.00 47.67     0.205 S 
HETATM   67  O1S SGN C   1      32.719  66.362   9.251  1.00 47.59    -0.578 OA
HETATM   68  O2S SGN C   1      31.878  64.556  10.675  1.00 48.55    -0.578 OA
HETATM   69  O3S SGN C   1      33.075  66.441  11.683  1.00 47.08    -0.578 OA
ENDBRANCH  64  66
ENDBRANCH  58  64
BRANCH  59  70
HETATM   70  O1  SGN C   1      28.467  68.032   9.752  1.00 51.36    -0.369 OA
ATOM     71  H1  SGN C   1      27.793  68.445   9.226  1.00  0.00     0.212 HD
ENDBRANCH  59  70
BRANCH  61  72
HETATM   72  C6  SGN C   1      29.277  72.045   9.446  1.00 55.48     0.227 C 
BRANCH  72  73
HETATM   73  O6  SGN C   1      29.215  71.976   8.005  1.00 61.59    -0.254 OA
BRANCH  73  74
HETATM   74  S2  SGN C   1      29.562  73.334   7.248  1.00 65.98     0.251 S 
HETATM   75  O4S SGN C   1      29.759  74.411   8.318  1.00 65.09    -0.572 OA
HETATM   76  O5S SGN C   1      28.431  73.629   6.388  1.00 65.58    -0.572 OA
HETATM   77  O6S SGN C   1      30.866  73.084   6.427  1.00 65.84    -0.572 OA
ENDBRANCH  73  74
ENDBRANCH  72  73
ENDBRANCH  61  72
ENDBRANCH  55  56
ENDBRANCH   1  55
TORSDOF 27
ENDMDL
MODEL 54
REMARK VINA RESULT:      -5.5     12.903     17.307
REMARK  27 active torsions:
REMARK  status: ('A' for Active; 'I' for Inactive)
REMARK    1  A    between atoms: C1_1  and  O1_2 
REMARK    2  A    between atoms: S1_5  and  N2_7 
REMARK    3  A    between atoms: C2_6  and  N2_7 
REMARK    4  A    between atoms: S2_10  and  O6_22 
REMARK    5  A    between atoms: C3_11  and  O3_12 
REMARK    6  A    between atoms: C4_15  and  O4_16 
REMARK    7  A    between atoms: O4_16  and  C1_24 
REMARK    8  A    between atoms: C5_18  and  C6_21 
REMARK    9  A    between atoms: C6_21  and  O6_22 
REMARK   10  A    between atoms: C2_26  and  O2_27 
REMARK   11  A    between atoms: O2_27  and  S_40 
REMARK   12  A    between atoms: C3_29  and  O3_30 
REMARK   13  A    between atoms: C4_33  and  O4_34 
REMARK   14  A    between atoms: O4_34  and  C1_41 
REMARK   15  A    between atoms: C5_35  and  C6_37 
REMARK   16  A    between atoms: S1_43  and  N2_45 
REMARK   17  A    between atoms: C2_44  and  N2_45 
REMARK   18  A    between atoms: S2_48  and  O6_60 
REMARK   19  A    between atoms: C3_49  and  O3_50 
REMARK   20  A    between atoms: C4_53  and  O4_54 
REMARK   21  A    between atoms: O4_54  and  C1_62 
REMARK   22  A    between atoms: C5_56  and  C6_59 
REMARK   23  A    between atoms: C6_59  and  O6_60 
REMARK   24  A    between atoms: C2_64  and  O2_65 
REMARK   25  A    between atoms: O2_65  and  S_77 
REMARK   26  A    between atoms: C3_67  and  O3_68 
REMARK   27  A    between atoms: C5_72  and  C6_74 
ROOT
HETATM    1  C1  IDS C   2      27.744  87.647  12.922  1.00 40.81     0.294 C 
HETATM    2  C2  IDS C   2      28.640  87.487  14.153  1.00 40.20     0.231 C 
HETATM    3  C3  IDS C   2      29.333  86.127  14.154  1.00 39.01     0.185 C 
HETATM    4  C4  IDS C   2      28.301  84.982  14.170  1.00 37.65     0.195 C 
HETATM    5  C5  IDS C   2      26.947  85.493  13.663  1.00 35.99     0.257 C 
HETATM    6  O5  IDS C   2      27.152  86.385  12.541  1.00 39.00    -0.340 OA
ENDROOT
BRANCH   4   7
HETATM    7  O4  IDS C   2      28.764  83.892  13.335  1.00 35.98    -0.348 OA
BRANCH   7   8
HETATM    8  C1  SGN C   3      29.447  82.858  13.992  1.00 35.40     0.287 C 
HETATM    9  C2  SGN C   3      30.646  82.394  13.146  1.00 33.71     0.182 C 
HETATM   10  C3  SGN C   3      30.214  81.584  11.918  1.00 35.79     0.178 C 
HETATM   11  C4  SGN C   3      29.169  80.512  12.276  1.00 36.62     0.186 C 
HETATM   12  C5  SGN C   3      28.054  81.127  13.112  1.00 39.32     0.181 C 
HETATM   13  O5  SGN C   3      28.604  81.758  14.283  1.00 37.58    -0.349 OA
BRANCH   9  14
HETATM   14  N2  SGN C   3      31.399  83.547  12.701  1.00 29.28    -0.289 N 
ATOM     15  H2  SGN C   3      31.083  84.110  11.911  1.00  0.00     0.175 HD
BRANCH  14  16
HETATM   16  S1  SGN C   3      32.786  83.917  13.517  1.00 27.84     0.205 S 
HETATM   17  O1S SGN C   3      32.440  83.757  14.917  1.00 27.65    -0.578 OA
HETATM   18  O2S SGN C   3      33.087  85.334  13.155  1.00 27.72    -0.578 OA
HETATM   19  O3S SGN C   3      33.878  82.987  13.090  1.00 28.50    -0.578 OA
ENDBRANCH  14  16
ENDBRANCH   9  14
BRANCH  10  20
HETATM   20  O3  SGN C   3      31.357  80.973  11.325  1.00 34.89    -0.391 OA
ATOM     21  H3  SGN C   3      31.420  80.071  11.615  1.00  0.00     0.210 HD
ENDBRANCH  10  20
BRANCH  11  22
HETATM   22  O4  SGN C   3      28.597  79.988  11.065  1.00 37.13    -0.348 OA
BRANCH  22  23
HETATM   23  C1  UAP C   4      27.796  80.870  10.356  1.00 39.64     0.294 C 
HETATM   24  C2  UAP C   4      28.249  80.940   8.909  1.00 38.70     0.228 C 
HETATM   25  C3  UAP C   4      27.431  81.983   8.154  1.00 38.51     0.156 C 
HETATM   26  C4  UAP C   4      25.871  81.961   8.506  1.00 38.14     0.077 C 
HETATM   27  C5  UAP C   4      25.528  81.156   9.601  1.00 38.51     0.228 C 
HETATM   28  O5  UAP C   4      26.463  80.379  10.403  1.00 37.46    -0.343 OA
BRANCH  24  29
HETATM   29  O2  UAP C   4      29.652  81.354   8.840  1.00 40.54    -0.244 OA
BRANCH  29  30
HETATM   30  S   UAP C   4      30.622  80.794   7.697  1.00 40.49     0.252 S 
HETATM   31  O1S UAP C   4      29.959  79.620   7.110  1.00 40.89    -0.572 OA
HETATM   32  O2S UAP C   4      31.887  80.432   8.353  1.00 37.88    -0.572 OA
HETATM   33  O3S UAP C   4      30.800  81.875   6.714  1.00 37.47    -0.572 OA
ENDBRANCH  29  30
ENDBRANCH  24  29
BRANCH  25  34
HETATM   34  O3  UAP C   4      27.599  81.782   6.759  1.00 38.58    -0.393 OA
ATOM     35  H3  UAP C   4      27.791  82.616   6.347  1.00  0.00     0.210 HD
ENDBRANCH  25  34
BRANCH  27  36
HETATM   36  C6  UAP C   4      24.121  80.978  10.054  1.00 37.96     0.203 C 
HETATM   37  O6A UAP C   4      23.540  81.955  10.568  1.00 40.05    -0.646 OA
HETATM   38  O6B UAP C   4      23.587  79.859   9.901  1.00 36.71    -0.646 OA
ENDBRANCH  27  36
ENDBRANCH  22  23
ENDBRANCH  11  22
BRANCH  12  39
HETATM   39  C6  SGN C   3      27.022  80.141  13.585  1.00 42.65     0.227 C 
BRANCH  39  40
HETATM   40  O6  SGN C   3      25.793  80.890  13.706  1.00 51.09    -0.254 OA
BRANCH  40  41
HETATM   41  S2  SGN C   3      24.715  80.320  14.735  1.00 54.80     0.251 S 
HETATM   42  O4S SGN C   3      23.494  80.012  13.969  1.00 54.99    -0.572 OA
HETATM   43  O5S SGN C   3      24.480  81.395  15.745  1.00 53.99    -0.572 OA
HETATM   44  O6S SGN C   3      25.293  79.124  15.334  1.00 55.43    -0.572 OA
ENDBRANCH  40  41
ENDBRANCH  39  40
ENDBRANCH  12  39
ENDBRANCH   7   8
ENDBRANCH   4   7
BRANCH   3  45
HETATM   45  O3  IDS C   2      30.181  86.029  15.290  1.00 39.65    -0.390 OA
ATOM     46  H3  IDS C   2      30.526  85.146  15.352  1.00  0.00     0.210 HD
ENDBRANCH   3  45
BRANCH   5  47
HETATM   47  C6  IDS C   2      25.973  84.408  13.224  1.00 36.10     0.206 C 
HETATM   48  O6A IDS C   2      26.081  83.969  12.058  1.00 32.44    -0.646 OA
HETATM   49  O6B IDS C   2      25.124  83.999  14.052  1.00 33.44    -0.646 OA
ENDBRANCH   5  47
BRANCH   2  50
HETATM   50  O2  IDS C   2      29.667  88.522  14.150  1.00 43.59    -0.244 OA
BRANCH  50  51
HETATM   51  S   IDS C   2      29.762  89.542  15.373  1.00 44.11     0.252 S 
HETATM   52  O1S IDS C   2      31.199  89.972  15.470  1.00 44.48    -0.572 OA
HETATM   53  O2S IDS C   2      29.316  88.815  16.580  1.00 44.29    -0.572 OA
HETATM   54  O3S IDS C   2      28.885  90.657  15.062  1.00 44.74    -0.572 OA
ENDBRANCH  50  51
ENDBRANCH   2  50
BRANCH   1  55
HETATM   55  O4  SGN C   1      26.725  88.545  13.205  1.00 44.73    -0.348 OA
BRANCH  55  56
HETATM   56  C4  SGN C   1      25.926  89.022  12.101  1.00 48.25     0.186 C 
HETATM   57  C3  SGN C   1      24.440  88.778  12.392  1.00 48.43     0.178 C 
HETATM   58  C2  SGN C   1      23.580  89.417  11.303  1.00 48.58     0.181 C 
HETATM   59  C1  SGN C   1      23.927  90.892  11.106  1.00 50.40     0.283 C 
HETATM   60  O5  SGN C   1      25.327  91.037  10.837  1.00 50.82    -0.349 OA
HETATM   61  C5  SGN C   1      26.163  90.528  11.901  1.00 51.58     0.181 C 
BRANCH  57  62
HETATM   62  O3  SGN C   1      24.178  87.385  12.438  1.00 46.09    -0.391 OA
ATOM     63  H3  SGN C   1      23.311  87.216  12.088  1.00  0.00     0.210 HD
ENDBRANCH  57  62
BRANCH  58  64
HETATM   64  N2  SGN C   1      22.174  89.288  11.627  1.00 48.56    -0.289 N 
ATOM     65  H2  SGN C   1      21.737  89.793  12.398  1.00  0.00     0.175 HD
BRANCH  64  66
HETATM   66  S1  SGN C   1      21.335  88.253  10.646  1.00 47.67     0.205 S 
HETATM   67  O1S SGN C   1      21.429  86.912  11.262  1.00 47.59    -0.578 OA
HETATM   68  O2S SGN C   1      22.005  88.320   9.344  1.00 48.55    -0.578 OA
HETATM   69  O3S SGN C   1      19.944  88.754  10.594  1.00 47.08    -0.578 OA
ENDBRANCH  64  66
ENDBRANCH  58  64
BRANCH  59  70
HETATM   70  O1  SGN C   1      23.620  91.606  12.254  1.00 51.36    -0.369 OA
ATOM     71  H1  SGN C   1      23.041  92.328  12.041  1.00  0.00     0.212 HD
ENDBRANCH  59  70
BRANCH  61  72
HETATM   72  C6  SGN C   1      27.587  90.847  11.521  1.00 55.48     0.227 C 
BRANCH  72  73
HETATM   73  O6  SGN C   1      27.961  92.126  12.079  1.00 61.59    -0.254 OA
BRANCH  73  74
HETATM   74  S2  SGN C   1      29.518  92.463  12.014  1.00 65.98     0.251 S 
HETATM   75  O4S SGN C   1      30.269  91.129  12.017  1.00 65.09    -0.572 OA
HETATM   76  O5S SGN C   1      29.819  93.255  13.192  1.00 65.58    -0.572 OA
HETATM   77  O6S SGN C   1      29.760  93.264  10.697  1.00 65.84    -0.572 OA
ENDBRANCH  73  74
ENDBRANCH  72  73
ENDBRANCH  61  72
ENDBRANCH  55  56
ENDBRANCH   1  55
TORSDOF 27
ENDMDL
MODEL 55
REMARK VINA RESULT:      -5.5      4.526      7.603
REMARK  27 active torsions:
REMARK  status: ('A' for Active; 'I' for Inactive)
REMARK    1  A    between atoms: C1_1  and  O1_2 
REMARK    2  A    between atoms: S1_5  and  N2_7 
REMARK    3  A    between atoms: C2_6  and  N2_7 
REMARK    4  A    between atoms: S2_10  and  O6_22 
REMARK    5  A    between atoms: C3_11  and  O3_12 
REMARK    6  A    between atoms: C4_15  and  O4_16 
REMARK    7  A    between atoms: O4_16  and  C1_24 
REMARK    8  A    between atoms: C5_18  and  C6_21 
REMARK    9  A    between atoms: C6_21  and  O6_22 
REMARK   10  A    between atoms: C2_26  and  O2_27 
REMARK   11  A    between atoms: O2_27  and  S_40 
REMARK   12  A    between atoms: C3_29  and  O3_30 
REMARK   13  A    between atoms: C4_33  and  O4_34 
REMARK   14  A    between atoms: O4_34  and  C1_41 
REMARK   15  A    between atoms: C5_35  and  C6_37 
REMARK   16  A    between atoms: S1_43  and  N2_45 
REMARK   17  A    between atoms: C2_44  and  N2_45 
REMARK   18  A    between atoms: S2_48  and  O6_60 
REMARK   19  A    between atoms: C3_49  and  O3_50 
REMARK   20  A    between atoms: C4_53  and  O4_54 
REMARK   21  A    between atoms: O4_54  and  C1_62 
REMARK   22  A    between atoms: C5_56  and  C6_59 
REMARK   23  A    between atoms: C6_59  and  O6_60 
REMARK   24  A    between atoms: C2_64  and  O2_65 
REMARK   25  A    between atoms: O2_65  and  S_77 
REMARK   26  A    between atoms: C3_67  and  O3_68 
REMARK   27  A    between atoms: C5_72  and  C6_74 
ROOT
HETATM    1  C1  IDS C   2      31.784  73.784  12.904  1.00 40.81     0.294 C 
HETATM    2  C2  IDS C   2      31.178  74.621  14.033  1.00 40.20     0.231 C 
HETATM    3  C3  IDS C   2      31.948  74.422  15.336  1.00 39.01     0.185 C 
HETATM    4  C4  IDS C   2      31.918  72.944  15.775  1.00 37.65     0.195 C 
HETATM    5  C5  IDS C   2      31.603  72.049  14.570  1.00 35.99     0.257 C 
HETATM    6  O5  IDS C   2      32.309  72.535  13.404  1.00 39.00    -0.340 OA
ENDROOT
BRANCH   4   7
HETATM    7  O4  IDS C   2      33.198  72.575  16.346  1.00 35.98    -0.348 OA
BRANCH   7   8
HETATM    8  C1  SGN C   3      33.804  73.534  17.171  1.00 35.40     0.287 C 
HETATM    9  C2  SGN C   3      35.139  72.995  17.716  1.00 33.71     0.182 C 
HETATM   10  C3  SGN C   3      34.939  71.920  18.790  1.00 35.79     0.178 C 
HETATM   11  C4  SGN C   3      33.890  72.340  19.835  1.00 36.62     0.186 C 
HETATM   12  C5  SGN C   3      32.634  72.849  19.139  1.00 39.32     0.181 C 
HETATM   13  O5  SGN C   3      32.966  73.925  18.243  1.00 37.58    -0.349 OA
BRANCH   9  14
HETATM   14  N2  SGN C   3      35.911  72.430  16.631  1.00 29.28    -0.289 N 
ATOM     15  H2  SGN C   3      35.534  71.682  16.049  1.00  0.00     0.175 HD
BRANCH  14  16
HETATM   16  S1  SGN C   3      37.423  73.041  16.367  1.00 27.84     0.205 S 
HETATM   17  O1S SGN C   3      38.194  71.909  15.887  1.00 27.65    -0.578 OA
HETATM   18  O2S SGN C   3      37.885  73.531  17.699  1.00 27.72    -0.578 OA
HETATM   19  O3S SGN C   3      37.345  74.145  15.360  1.00 28.50    -0.578 OA
ENDBRANCH  14  16
ENDBRANCH   9  14
BRANCH  10  20
HETATM   20  O3  SGN C   3      36.184  71.649  19.429  1.00 34.89    -0.391 OA
ATOM     21  H3  SGN C   3      36.755  72.403  19.343  1.00  0.00     0.210 HD
ENDBRANCH  10  20
BRANCH  11  22
HETATM   22  O4  SGN C   3      33.538  71.198  20.636  1.00 37.13    -0.348 OA
BRANCH  22  23
HETATM   23  C1  UAP C   4      34.307  70.064  20.424  1.00 39.64     0.294 C 
HETATM   24  C2  UAP C   4      34.853  69.549  21.744  1.00 38.70     0.228 C 
HETATM   25  C3  UAP C   4      35.777  68.360  21.499  1.00 38.51     0.156 C 
HETATM   26  C4  UAP C   4      35.235  67.333  20.400  1.00 38.14     0.077 C 
HETATM   27  C5  UAP C   4      34.123  67.785  19.674  1.00 38.51     0.228 C 
HETATM   28  O5  UAP C   4      33.467  69.072  19.849  1.00 37.46    -0.343 OA
BRANCH  24  29
HETATM   29  O2  UAP C   4      35.646  70.589  22.401  1.00 40.54    -0.244 OA
BRANCH  29  30
HETATM   30  S   UAP C   4      35.482  70.888  23.965  1.00 40.49     0.252 S 
HETATM   31  O1S UAP C   4      34.042  70.837  24.262  1.00 40.89    -0.572 OA
HETATM   32  O2S UAP C   4      36.038  72.228  24.202  1.00 37.88    -0.572 OA
HETATM   33  O3S UAP C   4      36.228  69.844  24.685  1.00 37.47    -0.572 OA
ENDBRANCH  29  30
ENDBRANCH  24  29
BRANCH  25  34
HETATM   34  O3  UAP C   4      35.979  67.672  22.724  1.00 38.58    -0.393 OA
ATOM     35  H3  UAP C   4      36.409  68.255  23.338  1.00  0.00     0.210 HD
ENDBRANCH  25  34
BRANCH  27  36
HETATM   36  C6  UAP C   4      33.454  66.952  18.636  1.00 37.96     0.203 C 
HETATM   37  O6A UAP C   4      32.989  67.526  17.631  1.00 40.05    -0.646 OA
HETATM   38  O6B UAP C   4      33.385  65.719  18.821  1.00 36.71    -0.646 OA
ENDBRANCH  27  36
ENDBRANCH  22  23
ENDBRANCH  11  22
BRANCH  12  39
HETATM   39  C6  SGN C   3      31.576  73.364  20.075  1.00 42.65     0.227 C 
BRANCH  39  40
HETATM   40  O6  SGN C   3      30.737  74.229  19.279  1.00 51.09    -0.254 OA
BRANCH  40  41
HETATM   41  S2  SGN C   3      30.429  75.672  19.887  1.00 54.80     0.251 S 
HETATM   42  O4S SGN C   3      31.589  76.062  20.708  1.00 54.99    -0.572 OA
HETATM   43  O5S SGN C   3      29.190  75.533  20.709  1.00 53.99    -0.572 OA
HETATM   44  O6S SGN C   3      30.238  76.574  18.759  1.00 55.43    -0.572 OA
ENDBRANCH  40  41
ENDBRANCH  39  40
ENDBRANCH  12  39
ENDBRANCH   7   8
ENDBRANCH   4   7
BRANCH   3  45
HETATM   45  O3  IDS C   2      31.380  75.238  16.351  1.00 39.65    -0.390 OA
ATOM     46  H3  IDS C   2      31.703  76.127  16.261  1.00  0.00     0.210 HD
ENDBRANCH   3  45
BRANCH   5  47
HETATM   47  C6  IDS C   2      31.956  70.579  14.751  1.00 36.10     0.206 C 
HETATM   48  O6A IDS C   2      31.349  69.941  15.640  1.00 32.44    -0.646 OA
HETATM   49  O6B IDS C   2      32.822  70.077  13.995  1.00 33.44    -0.646 OA
ENDBRANCH   5  47
BRANCH   2  50
HETATM   50  O2  IDS C   2      31.235  76.034  13.681  1.00 43.59    -0.244 OA
BRANCH  50  51
HETATM   51  S   IDS C   2      29.919  76.930  13.800  1.00 44.11     0.252 S 
HETATM   52  O1S IDS C   2      28.747  76.000  13.663  1.00 44.48    -0.572 OA
HETATM   53  O2S IDS C   2      29.972  77.925  12.708  1.00 44.29    -0.572 OA
HETATM   54  O3S IDS C   2      29.957  77.563  15.107  1.00 44.74    -0.572 OA
ENDBRANCH  50  51
ENDBRANCH   2  50
BRANCH   1  55
HETATM   55  O4  SGN C   1      30.806  73.505  11.959  1.00 44.73    -0.348 OA
BRANCH  55  56
HETATM   56  C4  SGN C   1      31.152  73.675  10.567  1.00 48.25     0.186 C 
HETATM   57  C3  SGN C   1      31.973  74.958  10.389  1.00 48.43     0.178 C 
HETATM   58  C2  SGN C   1      32.474  75.065   8.949  1.00 48.58     0.181 C 
HETATM   59  C1  SGN C   1      33.218  73.802   8.518  1.00 50.40     0.283 C 
HETATM   60  O5  SGN C   1      32.388  72.650   8.712  1.00 50.82    -0.349 OA
HETATM   61  C5  SGN C   1      31.981  72.472  10.089  1.00 51.58     0.181 C 
BRANCH  57  62
HETATM   62  O3  SGN C   1      31.173  76.090  10.692  1.00 46.09    -0.391 OA
ATOM     63  H3  SGN C   1      30.507  76.192  10.022  1.00  0.00     0.210 HD
ENDBRANCH  57  62
BRANCH  58  64
HETATM   64  N2  SGN C   1      33.341  76.215   8.800  1.00 48.56    -0.289 N 
ATOM     65  H2  SGN C   1      34.269  76.265   9.222  1.00  0.00     0.175 HD
BRANCH  64  66
HETATM   66  S1  SGN C   1      32.706  77.442   7.889  1.00 47.67     0.205 S 
HETATM   67  O1S SGN C   1      32.911  78.690   8.655  1.00 47.59    -0.578 OA
HETATM   68  O2S SGN C   1      31.287  77.111   7.726  1.00 48.55    -0.578 OA
HETATM   69  O3S SGN C   1      33.440  77.440   6.605  1.00 47.08    -0.578 OA
ENDBRANCH  64  66
ENDBRANCH  58  64
BRANCH  59  70
HETATM   70  O1  SGN C   1      34.369  73.651   9.277  1.00 51.36    -0.369 OA
ATOM     71  H1  SGN C   1      35.081  74.145   8.886  1.00  0.00     0.212 HD
ENDBRANCH  59  70
BRANCH  61  72
HETATM   72  C6  SGN C   1      31.212  71.175  10.146  1.00 55.48     0.227 C 
BRANCH  72  73
HETATM   73  O6  SGN C   1      30.521  70.968   8.895  1.00 61.59    -0.254 OA
BRANCH  73  74
HETATM   74  S2  SGN C   1      28.931  70.975   8.991  1.00 65.98     0.251 S 
HETATM   75  O4S SGN C   1      28.553  70.247  10.284  1.00 65.09    -0.572 OA
HETATM   76  O5S SGN C   1      28.442  70.276   7.816  1.00 65.58    -0.572 OA
HETATM   77  O6S SGN C   1      28.477  72.468   9.009  1.00 65.84    -0.572 OA
ENDBRANCH  73  74
ENDBRANCH  72  73
ENDBRANCH  61  72
ENDBRANCH  55  56
ENDBRANCH   1  55
TORSDOF 27
ENDMDL
MODEL 56
REMARK VINA RESULT:      -5.5      2.910     11.704
REMARK  27 active torsions:
REMARK  status: ('A' for Active; 'I' for Inactive)
REMARK    1  A    between atoms: C1_1  and  O1_2 
REMARK    2  A    between atoms: S1_5  and  N2_7 
REMARK    3  A    between atoms: C2_6  and  N2_7 
REMARK    4  A    between atoms: S2_10  and  O6_22 
REMARK    5  A    between atoms: C3_11  and  O3_12 
REMARK    6  A    between atoms: C4_15  and  O4_16 
REMARK    7  A    between atoms: O4_16  and  C1_24 
REMARK    8  A    between atoms: C5_18  and  C6_21 
REMARK    9  A    between atoms: C6_21  and  O6_22 
REMARK   10  A    between atoms: C2_26  and  O2_27 
REMARK   11  A    between atoms: O2_27  and  S_40 
REMARK   12  A    between atoms: C3_29  and  O3_30 
REMARK   13  A    between atoms: C4_33  and  O4_34 
REMARK   14  A    between atoms: O4_34  and  C1_41 
REMARK   15  A    between atoms: C5_35  and  C6_37 
REMARK   16  A    between atoms: S1_43  and  N2_45 
REMARK   17  A    between atoms: C2_44  and  N2_45 
REMARK   18  A    between atoms: S2_48  and  O6_60 
REMARK   19  A    between atoms: C3_49  and  O3_50 
REMARK   20  A    between atoms: C4_53  and  O4_54 
REMARK   21  A    between atoms: O4_54  and  C1_62 
REMARK   22  A    between atoms: C5_56  and  C6_59 
REMARK   23  A    between atoms: C6_59  and  O6_60 
REMARK   24  A    between atoms: C2_64  and  O2_65 
REMARK   25  A    between atoms: O2_65  and  S_77 
REMARK   26  A    between atoms: C3_67  and  O3_68 
REMARK   27  A    between atoms: C5_72  and  C6_74 
ROOT
HETATM    1  C1  IDS C   2      34.756  69.640  18.818  1.00 40.81     0.294 C 
HETATM    2  C2  IDS C   2      34.802  69.564  17.290  1.00 40.20     0.231 C 
HETATM    3  C3  IDS C   2      35.010  70.947  16.678  1.00 39.01     0.185 C 
HETATM    4  C4  IDS C   2      33.864  71.902  17.069  1.00 37.65     0.195 C 
HETATM    5  C5  IDS C   2      33.161  71.384  18.330  1.00 35.99     0.257 C 
HETATM    6  O5  IDS C   2      34.145  70.872  19.261  1.00 39.00    -0.340 OA
ENDROOT
BRANCH   4   7
HETATM    7  O4  IDS C   2      34.391  73.231  17.306  1.00 35.98    -0.348 OA
BRANCH   7   8
HETATM    8  C1  SGN C   3      34.838  73.928  16.174  1.00 35.40     0.287 C 
HETATM    9  C2  SGN C   3      34.871  75.439  16.461  1.00 33.71     0.182 C 
HETATM   10  C3  SGN C   3      33.467  76.052  16.517  1.00 35.79     0.178 C 
HETATM   11  C4  SGN C   3      32.592  75.595  15.336  1.00 36.62     0.186 C 
HETATM   12  C5  SGN C   3      32.669  74.082  15.183  1.00 39.32     0.181 C 
HETATM   13  O5  SGN C   3      34.038  73.668  15.034  1.00 37.58    -0.349 OA
BRANCH   9  14
HETATM   14  N2  SGN C   3      35.533  75.677  17.724  1.00 29.28    -0.289 N 
ATOM     15  H2  SGN C   3      35.314  75.117  18.548  1.00  0.00     0.175 HD
BRANCH  14  16
HETATM   16  S1  SGN C   3      36.656  76.887  17.785  1.00 27.84     0.205 S 
HETATM   17  O1S SGN C   3      35.939  78.022  18.336  1.00 27.65    -0.578 OA
HETATM   18  O2S SGN C   3      37.078  77.102  16.370  1.00 27.72    -0.578 OA
HETATM   19  O3S SGN C   3      37.800  76.461  18.652  1.00 28.50    -0.578 OA
ENDBRANCH  14  16
ENDBRANCH   9  14
BRANCH  10  20
HETATM   20  O3  SGN C   3      33.568  77.474  16.530  1.00 34.89    -0.391 OA
ATOM     21  H3  SGN C   3      32.965  77.840  15.894  1.00  0.00     0.210 HD
ENDBRANCH  10  20
BRANCH  11  22
HETATM   22  O4  SGN C   3      31.225  75.961  15.592  1.00 37.13    -0.348 OA
BRANCH  22  23
HETATM   23  C1  UAP C   4      30.700  76.924  14.744  1.00 39.64     0.294 C 
HETATM   24  C2  UAP C   4      29.662  77.755  15.477  1.00 38.70     0.228 C 
HETATM   25  C3  UAP C   4      29.015  78.750  14.517  1.00 38.51     0.156 C 
HETATM   26  C4  UAP C   4      30.049  79.454  13.521  1.00 38.14     0.077 C 
HETATM   27  C5  UAP C   4      31.336  78.898  13.522  1.00 38.51     0.228 C 
HETATM   28  O5  UAP C   4      31.767  77.769  14.334  1.00 37.46    -0.343 OA
BRANCH  24  29
HETATM   29  O2  UAP C   4      28.598  76.892  15.991  1.00 40.54    -0.244 OA
BRANCH  29  30
HETATM   30  S   UAP C   4      27.844  77.237  17.361  1.00 40.49     0.252 S 
HETATM   31  O1S UAP C   4      27.694  75.974  18.097  1.00 40.89    -0.572 OA
HETATM   32  O2S UAP C   4      26.541  77.811  16.995  1.00 37.88    -0.572 OA
HETATM   33  O3S UAP C   4      28.687  78.201  18.087  1.00 37.47    -0.572 OA
ENDBRANCH  29  30
ENDBRANCH  24  29
BRANCH  25  34
HETATM   34  O3  UAP C   4      28.339  79.744  15.269  1.00 38.58    -0.393 OA
ATOM     35  H3  UAP C   4      27.939  79.338  16.030  1.00  0.00     0.210 HD
ENDBRANCH  25  34
BRANCH  27  36
HETATM   36  C6  UAP C   4      32.445  79.444  12.691  1.00 37.96     0.203 C 
HETATM   37  O6A UAP C   4      32.877  80.582  12.959  1.00 40.05    -0.646 OA
HETATM   38  O6B UAP C   4      32.889  78.738  11.760  1.00 36.71    -0.646 OA
ENDBRANCH  27  36
ENDBRANCH  22  23
ENDBRANCH  11  22
BRANCH  12  39
HETATM   39  C6  SGN C   3      31.913  73.542  14.001  1.00 42.65     0.227 C 
BRANCH  39  40
HETATM   40  O6  SGN C   3      31.313  72.308  14.452  1.00 51.09    -0.254 OA
BRANCH  40  41
HETATM   41  S2  SGN C   3      31.833  70.971  13.752  1.00 54.80     0.251 S 
HETATM   42  O4S SGN C   3      30.754  70.484  12.874  1.00 54.99    -0.572 OA
HETATM   43  O5S SGN C   3      32.133  70.004  14.850  1.00 53.99    -0.572 OA
HETATM   44  O6S SGN C   3      33.026  71.327  12.995  1.00 55.43    -0.572 OA
ENDBRANCH  40  41
ENDBRANCH  39  40
ENDBRANCH  12  39
ENDBRANCH   7   8
ENDBRANCH   4   7
BRANCH   3  45
HETATM   45  O3  IDS C   2      35.081  70.833  15.263  1.00 39.65    -0.390 OA
ATOM     46  H3  IDS C   2      34.259  70.494  14.931  1.00  0.00     0.210 HD
ENDBRANCH   3  45
BRANCH   5  47
HETATM   47  C6  IDS C   2      32.315  72.415  19.064  1.00 36.10     0.206 C 
HETATM   48  O6A IDS C   2      31.332  72.896  18.459  1.00 32.44    -0.646 OA
HETATM   49  O6B IDS C   2      32.633  72.719  20.239  1.00 33.44    -0.646 OA
ENDBRANCH   5  47
BRANCH   2  50
HETATM   50  O2  IDS C   2      35.908  68.711  16.874  1.00 43.59    -0.244 OA
BRANCH  50  51
HETATM   51  S   IDS C   2      35.629  67.476  15.902  1.00 44.11     0.252 S 
HETATM   52  O1S IDS C   2      34.199  67.068  16.119  1.00 44.48    -0.572 OA
HETATM   53  O2S IDS C   2      36.577  66.406  16.277  1.00 44.29    -0.572 OA
HETATM   54  O3S IDS C   2      35.857  67.946  14.547  1.00 44.74    -0.572 OA
ENDBRANCH  50  51
ENDBRANCH   2  50
BRANCH   1  55
HETATM   55  O4  SGN C   1      34.015  68.577  19.312  1.00 44.73    -0.348 OA
BRANCH  55  56
HETATM   56  C4  SGN C   1      34.537  67.871  20.459  1.00 48.25     0.186 C 
HETATM   57  C3  SGN C   1      34.084  68.569  21.748  1.00 48.43     0.178 C 
HETATM   58  C2  SGN C   1      34.501  67.745  22.965  1.00 48.58     0.181 C 
HETATM   59  C1  SGN C   1      34.020  66.299  22.855  1.00 50.40     0.283 C 
HETATM   60  O5  SGN C   1      34.484  65.717  21.631  1.00 50.82    -0.349 OA
HETATM   61  C5  SGN C   1      34.019  66.423  20.457  1.00 51.58     0.181 C 
BRANCH  57  62
HETATM   62  O3  SGN C   1      34.671  69.858  21.832  1.00 46.09    -0.391 OA
ATOM     63  H3  SGN C   1      34.952  70.017  22.726  1.00  0.00     0.210 HD
ENDBRANCH  57  62
BRANCH  58  64
HETATM   64  N2  SGN C   1      33.982  68.339  24.180  1.00 48.56    -0.289 N 
ATOM     65  H2  SGN C   1      33.009  68.242  24.468  1.00  0.00     0.175 HD
BRANCH  64  66
HETATM   66  S1  SGN C   1      35.096  69.187  25.061  1.00 47.67     0.205 S 
HETATM   67  O1S SGN C   1      36.287  69.348  24.199  1.00 47.59    -0.578 OA
HETATM   68  O2S SGN C   1      35.368  68.363  26.243  1.00 48.55    -0.578 OA
HETATM   69  O3S SGN C   1      34.468  70.482  25.404  1.00 47.08    -0.578 OA
ENDBRANCH  64  66
ENDBRANCH  58  64
BRANCH  59  70
HETATM   70  O1  SGN C   1      32.634  66.260  22.868  1.00 51.36    -0.369 OA
ATOM     71  H1  SGN C   1      32.293  67.026  23.315  1.00  0.00     0.212 HD
ENDBRANCH  59  70
BRANCH  61  72
HETATM   72  C6  SGN C   1      34.497  65.636  19.263  1.00 55.48     0.227 C 
BRANCH  72  73
HETATM   73  O6  SGN C   1      33.493  64.667  18.891  1.00 61.59    -0.254 OA
BRANCH  73  74
HETATM   74  S2  SGN C   1      33.830  63.160  19.284  1.00 65.98     0.251 S 
HETATM   75  O4S SGN C   1      35.320  63.106  19.630  1.00 65.09    -0.572 OA
HETATM   76  O5S SGN C   1      33.516  62.349  18.122  1.00 65.58    -0.572 OA
HETATM   77  O6S SGN C   1      32.934  62.792  20.508  1.00 65.84    -0.572 OA
ENDBRANCH  73  74
ENDBRANCH  72  73
ENDBRANCH  61  72
ENDBRANCH  55  56
ENDBRANCH   1  55
TORSDOF 27
ENDMDL
MODEL 57
REMARK VINA RESULT:      -5.5     12.759     20.239
REMARK  27 active torsions:
REMARK  status: ('A' for Active; 'I' for Inactive)
REMARK    1  A    between atoms: C1_1  and  O1_2 
REMARK    2  A    between atoms: S1_5  and  N2_7 
REMARK    3  A    between atoms: C2_6  and  N2_7 
REMARK    4  A    between atoms: S2_10  and  O6_22 
REMARK    5  A    between atoms: C3_11  and  O3_12 
REMARK    6  A    between atoms: C4_15  and  O4_16 
REMARK    7  A    between atoms: O4_16  and  C1_24 
REMARK    8  A    between atoms: C5_18  and  C6_21 
REMARK    9  A    between atoms: C6_21  and  O6_22 
REMARK   10  A    between atoms: C2_26  and  O2_27 
REMARK   11  A    between atoms: O2_27  and  S_40 
REMARK   12  A    between atoms: C3_29  and  O3_30 
REMARK   13  A    between atoms: C4_33  and  O4_34 
REMARK   14  A    between atoms: O4_34  and  C1_41 
REMARK   15  A    between atoms: C5_35  and  C6_37 
REMARK   16  A    between atoms: S1_43  and  N2_45 
REMARK   17  A    between atoms: C2_44  and  N2_45 
REMARK   18  A    between atoms: S2_48  and  O6_60 
REMARK   19  A    between atoms: C3_49  and  O3_50 
REMARK   20  A    between atoms: C4_53  and  O4_54 
REMARK   21  A    between atoms: O4_54  and  C1_62 
REMARK   22  A    between atoms: C5_56  and  C6_59 
REMARK   23  A    between atoms: C6_59  and  O6_60 
REMARK   24  A    between atoms: C2_64  and  O2_65 
REMARK   25  A    between atoms: O2_65  and  S_77 
REMARK   26  A    between atoms: C3_67  and  O3_68 
REMARK   27  A    between atoms: C5_72  and  C6_74 
ROOT
HETATM    1  C1  IDS C   2      30.484  92.048  11.567  1.00 40.81     0.294 C 
HETATM    2  C2  IDS C   2      29.133  92.406  12.192  1.00 40.20     0.231 C 
HETATM    3  C3  IDS C   2      28.705  91.354  13.212  1.00 39.01     0.185 C 
HETATM    4  C4  IDS C   2      28.568  89.967  12.551  1.00 37.65     0.195 C 
HETATM    5  C5  IDS C   2      29.376  89.929  11.248  1.00 35.99     0.257 C 
HETATM    6  O5  IDS C   2      30.636  90.617  11.435  1.00 39.00    -0.340 OA
ENDROOT
BRANCH   4   7
HETATM    7  O4  IDS C   2      29.041  88.941  13.459  1.00 35.98    -0.348 OA
BRANCH   7   8
HETATM    8  C1  SGN C   3      28.079  88.381  14.311  1.00 35.40     0.287 C 
HETATM    9  C2  SGN C   3      28.741  87.372  15.266  1.00 33.71     0.182 C 
HETATM   10  C3  SGN C   3      29.143  86.074  14.556  1.00 35.79     0.178 C 
HETATM   11  C4  SGN C   3      28.013  85.535  13.662  1.00 36.62     0.186 C 
HETATM   12  C5  SGN C   3      27.464  86.650  12.782  1.00 39.32     0.181 C 
HETATM   13  O5  SGN C   3      27.029  87.754  13.596  1.00 37.58    -0.349 OA
BRANCH   9  14
HETATM   14  N2  SGN C   3      29.922  87.966  15.853  1.00 29.28    -0.289 N 
ATOM     15  H2  SGN C   3      30.851  87.772  15.480  1.00  0.00     0.175 HD
BRANCH  14  16
HETATM   16  S1  SGN C   3      29.712  88.967  17.150  1.00 27.84     0.205 S 
HETATM   17  O1S SGN C   3      28.517  88.470  17.805  1.00 27.65    -0.578 OA
HETATM   18  O2S SGN C   3      29.526  90.329  16.567  1.00 27.72    -0.578 OA
HETATM   19  O3S SGN C   3      30.918  88.897  18.034  1.00 28.50    -0.578 OA
ENDBRANCH  14  16
ENDBRANCH   9  14
BRANCH  10  20
HETATM   20  O3  SGN C   3      29.510  85.095  15.525  1.00 34.89    -0.391 OA
ATOM     21  H3  SGN C   3      29.414  85.461  16.396  1.00  0.00     0.210 HD
ENDBRANCH  10  20
BRANCH  11  22
HETATM   22  O4  SGN C   3      28.536  84.498  12.813  1.00 37.13    -0.348 OA
BRANCH  22  23
HETATM   23  C1  UAP C   4      27.937  83.256  12.955  1.00 39.64     0.294 C 
HETATM   24  C2  UAP C   4      28.790  82.363  13.839  1.00 38.70     0.228 C 
HETATM   25  C3  UAP C   4      28.180  80.966  13.916  1.00 38.51     0.156 C 
HETATM   26  C4  UAP C   4      26.588  80.962  14.069  1.00 38.14     0.077 C 
HETATM   27  C5  UAP C   4      25.978  82.212  13.886  1.00 38.51     0.228 C 
HETATM   28  O5  UAP C   4      26.673  83.453  13.575  1.00 37.46    -0.343 OA
BRANCH  24  29
HETATM   29  O2  UAP C   4      30.130  82.222  13.268  1.00 40.54    -0.244 OA
BRANCH  29  30
HETATM   30  S   UAP C   4      31.437  82.499  14.150  1.00 40.49     0.252 S 
HETATM   31  O1S UAP C   4      31.794  83.911  13.955  1.00 40.89    -0.572 OA
HETATM   32  O2S UAP C   4      32.486  81.599  13.649  1.00 37.88    -0.572 OA
HETATM   33  O3S UAP C   4      31.083  82.209  15.549  1.00 37.47    -0.572 OA
ENDBRANCH  29  30
ENDBRANCH  24  29
BRANCH  25  34
HETATM   34  O3  UAP C   4      28.758  80.270  15.008  1.00 38.58    -0.393 OA
ATOM     35  H3  UAP C   4      29.573  79.873  14.725  1.00  0.00     0.210 HD
ENDBRANCH  25  34
BRANCH  27  36
HETATM   36  C6  UAP C   4      24.510  82.414  14.030  1.00 37.96     0.203 C 
HETATM   37  O6A UAP C   4      23.887  81.671  14.814  1.00 40.05    -0.646 OA
HETATM   38  O6B UAP C   4      23.969  83.316  13.355  1.00 36.71    -0.646 OA
ENDBRANCH  27  36
ENDBRANCH  22  23
ENDBRANCH  11  22
BRANCH  12  39
HETATM   39  C6  SGN C   3      26.295  86.244  11.928  1.00 42.65     0.227 C 
BRANCH  39  40
HETATM   40  O6  SGN C   3      25.136  86.856  12.535  1.00 51.09    -0.254 OA
BRANCH  40  41
HETATM   41  S2  SGN C   3      24.289  87.842  11.609  1.00 54.80     0.251 S 
HETATM   42  O4S SGN C   3      25.240  88.766  10.963  1.00 54.99    -0.572 OA
HETATM   43  O5S SGN C   3      23.341  88.563  12.509  1.00 53.99    -0.572 OA
HETATM   44  O6S SGN C   3      23.594  87.013  10.633  1.00 55.43    -0.572 OA
ENDBRANCH  40  41
ENDBRANCH  39  40
ENDBRANCH  12  39
ENDBRANCH   7   8
ENDBRANCH   4   7
BRANCH   3  45
HETATM   45  O3  IDS C   2      27.466  91.735  13.795  1.00 39.65    -0.390 OA
ATOM     46  H3  IDS C   2      26.853  91.969  13.109  1.00  0.00     0.210 HD
ENDBRANCH   3  45
BRANCH   5  47
HETATM   47  C6  IDS C   2      29.681  88.533  10.721  1.00 36.10     0.206 C 
HETATM   48  O6A IDS C   2      28.820  87.985   9.998  1.00 32.44    -0.646 OA
HETATM   49  O6B IDS C   2      30.780  88.009  11.023  1.00 33.44    -0.646 OA
ENDBRANCH   5  47
BRANCH   2  50
HETATM   50  O2  IDS C   2      29.233  93.689  12.875  1.00 43.59    -0.244 OA
BRANCH  50  51
HETATM   51  S   IDS C   2      28.249  94.878  12.467  1.00 44.11     0.252 S 
HETATM   52  O1S IDS C   2      27.979  94.733  10.996  1.00 44.48    -0.572 OA
HETATM   53  O2S IDS C   2      28.944  96.144  12.784  1.00 44.29    -0.572 OA
HETATM   54  O3S IDS C   2      27.041  94.715  13.256  1.00 44.74    -0.572 OA
ENDBRANCH  50  51
ENDBRANCH   2  50
BRANCH   1  55
HETATM   55  O4  SGN C   1      30.577  92.621  10.307  1.00 44.73    -0.348 OA
BRANCH  55  56
HETATM   56  C4  SGN C   1      31.881  93.056   9.863  1.00 48.25     0.186 C 
HETATM   57  C3  SGN C   1      32.440  92.059   8.841  1.00 48.43     0.178 C 
HETATM   58  C2  SGN C   1      33.746  92.590   8.251  1.00 48.58     0.181 C 
HETATM   59  C1  SGN C   1      33.578  94.002   7.693  1.00 50.40     0.283 C 
HETATM   60  O5  SGN C   1      33.055  94.872   8.705  1.00 50.82    -0.349 OA
HETATM   61  C5  SGN C   1      31.768  94.444   9.209  1.00 51.58     0.181 C 
BRANCH  57  62
HETATM   62  O3  SGN C   1      32.683  90.809   9.466  1.00 46.09    -0.391 OA
ATOM     63  H3  SGN C   1      33.323  90.924  10.159  1.00  0.00     0.210 HD
ENDBRANCH  57  62
BRANCH  58  64
HETATM   64  N2  SGN C   1      34.224  91.708   7.206  1.00 48.56    -0.289 N 
ATOM     65  H2  SGN C   1      33.705  91.543   6.344  1.00  0.00     0.175 HD
BRANCH  64  66
HETATM   66  S1  SGN C   1      35.681  90.991   7.524  1.00 47.67     0.205 S 
HETATM   67  O1S SGN C   1      36.056  90.234   6.310  1.00 47.59    -0.578 OA
HETATM   68  O2S SGN C   1      35.441  90.117   8.677  1.00 48.55    -0.578 OA
HETATM   69  O3S SGN C   1      36.633  92.082   7.827  1.00 47.08    -0.578 OA
ENDBRANCH  64  66
ENDBRANCH  58  64
BRANCH  59  70
HETATM   70  O1  SGN C   1      32.695  93.985   6.624  1.00 51.36    -0.369 OA
ATOM     71  H1  SGN C   1      33.177  93.905   5.809  1.00  0.00     0.212 HD
ENDBRANCH  59  70
BRANCH  61  72
HETATM   72  C6  SGN C   1      31.308  95.506  10.176  1.00 55.48     0.227 C 
BRANCH  72  73
HETATM   73  O6  SGN C   1      31.969  95.322  11.446  1.00 61.59    -0.254 OA
BRANCH  73  74
HETATM   74  S2  SGN C   1      32.868  96.547  11.925  1.00 65.98     0.251 S 
HETATM   75  O4S SGN C   1      32.198  97.141  13.167  1.00 65.09    -0.572 OA
HETATM   76  O5S SGN C   1      32.900  97.493  10.825  1.00 65.58    -0.572 OA
HETATM   77  O6S SGN C   1      34.287  95.979  12.245  1.00 65.84    -0.572 OA
ENDBRANCH  73  74
ENDBRANCH  72  73
ENDBRANCH  61  72
ENDBRANCH  55  56
ENDBRANCH   1  55
TORSDOF 27
ENDMDL
MODEL 58
REMARK VINA RESULT:      -5.5      6.008      9.828
REMARK  27 active torsions:
REMARK  status: ('A' for Active; 'I' for Inactive)
REMARK    1  A    between atoms: C1_1  and  O1_2 
REMARK    2  A    between atoms: S1_5  and  N2_7 
REMARK    3  A    between atoms: C2_6  and  N2_7 
REMARK    4  A    between atoms: S2_10  and  O6_22 
REMARK    5  A    between atoms: C3_11  and  O3_12 
REMARK    6  A    between atoms: C4_15  and  O4_16 
REMARK    7  A    between atoms: O4_16  and  C1_24 
REMARK    8  A    between atoms: C5_18  and  C6_21 
REMARK    9  A    between atoms: C6_21  and  O6_22 
REMARK   10  A    between atoms: C2_26  and  O2_27 
REMARK   11  A    between atoms: O2_27  and  S_40 
REMARK   12  A    between atoms: C3_29  and  O3_30 
REMARK   13  A    between atoms: C4_33  and  O4_34 
REMARK   14  A    between atoms: O4_34  and  C1_41 
REMARK   15  A    between atoms: C5_35  and  C6_37 
REMARK   16  A    between atoms: S1_43  and  N2_45 
REMARK   17  A    between atoms: C2_44  and  N2_45 
REMARK   18  A    between atoms: S2_48  and  O6_60 
REMARK   19  A    between atoms: C3_49  and  O3_50 
REMARK   20  A    between atoms: C4_53  and  O4_54 
REMARK   21  A    between atoms: O4_54  and  C1_62 
REMARK   22  A    between atoms: C5_56  and  C6_59 
REMARK   23  A    between atoms: C6_59  and  O6_60 
REMARK   24  A    between atoms: C2_64  and  O2_65 
REMARK   25  A    between atoms: O2_65  and  S_77 
REMARK   26  A    between atoms: C3_67  and  O3_68 
REMARK   27  A    between atoms: C5_72  and  C6_74 
ROOT
HETATM    1  C1  IDS C   2      31.186  73.363  14.275  1.00 40.81     0.294 C 
HETATM    2  C2  IDS C   2      31.482  74.023  12.926  1.00 40.20     0.231 C 
HETATM    3  C3  IDS C   2      31.423  73.003  11.792  1.00 39.01     0.185 C 
HETATM    4  C4  IDS C   2      32.457  71.879  12.004  1.00 37.65     0.195 C 
HETATM    5  C5  IDS C   2      32.858  71.813  13.484  1.00 35.99     0.257 C 
HETATM    6  O5  IDS C   2      31.688  72.009  14.315  1.00 39.00    -0.340 OA
ENDROOT
BRANCH   4   7
HETATM    7  O4  IDS C   2      31.895  70.610  11.586  1.00 35.98    -0.348 OA
BRANCH   7   8
HETATM    8  C1  SGN C   3      32.082  70.268  10.238  1.00 35.40     0.287 C 
HETATM    9  C2  SGN C   3      30.871  69.471   9.722  1.00 33.71     0.182 C 
HETATM   10  C3  SGN C   3      30.834  68.042  10.276  1.00 35.79     0.178 C 
HETATM   11  C4  SGN C   3      32.205  67.351  10.176  1.00 36.62     0.186 C 
HETATM   12  C5  SGN C   3      33.293  68.265  10.723  1.00 39.32     0.181 C 
HETATM   13  O5  SGN C   3      33.272  69.528  10.034  1.00 37.58    -0.349 OA
BRANCH   9  14
HETATM   14  N2  SGN C   3      29.650  70.149  10.100  1.00 29.28    -0.289 N 
ATOM     15  H2  SGN C   3      29.212  69.980  11.005  1.00  0.00     0.175 HD
BRANCH  14  16
HETATM   16  S1  SGN C   3      28.993  71.205   9.014  1.00 27.84     0.205 S 
HETATM   17  O1S SGN C   3      29.976  71.294   7.950  1.00 27.65    -0.578 OA
HETATM   18  O2S SGN C   3      28.834  72.488   9.761  1.00 27.72    -0.578 OA
HETATM   19  O3S SGN C   3      27.680  70.671   8.532  1.00 28.50    -0.578 OA
ENDBRANCH  14  16
ENDBRANCH   9  14
BRANCH  10  20
HETATM   20  O3  SGN C   3      29.852  67.285   9.574  1.00 34.89    -0.391 OA
ATOM     21  H3  SGN C   3      29.173  67.009  10.178  1.00  0.00     0.210 HD
ENDBRANCH  10  20
BRANCH  11  22
HETATM   22  O4  SGN C   3      32.184  66.144  10.959  1.00 37.13    -0.348 OA
BRANCH  22  23
HETATM   23  C1  UAP C   4      32.580  64.997  10.290  1.00 39.64     0.294 C 
HETATM   24  C2  UAP C   4      31.698  63.828  10.691  1.00 38.70     0.228 C 
HETATM   25  C3  UAP C   4      32.195  62.546  10.030  1.00 38.51     0.156 C 
HETATM   26  C4  UAP C   4      32.634  62.732   8.504  1.00 38.14     0.077 C 
HETATM   27  C5  UAP C   4      32.710  64.065   8.074  1.00 38.51     0.228 C 
HETATM   28  O5  UAP C   4      32.432  65.234   8.896  1.00 37.46    -0.343 OA
BRANCH  24  29
HETATM   29  O2  UAP C   4      31.761  63.624  12.139  1.00 40.54    -0.244 OA
BRANCH  29  30
HETATM   30  S   UAP C   4      30.431  63.385  12.997  1.00 40.49     0.252 S 
HETATM   31  O1S UAP C   4      29.871  62.094  12.570  1.00 40.89    -0.572 OA
HETATM   32  O2S UAP C   4      29.522  64.499  12.690  1.00 37.88    -0.572 OA
HETATM   33  O3S UAP C   4      30.827  63.371  14.414  1.00 37.47    -0.572 OA
ENDBRANCH  29  30
ENDBRANCH  24  29
BRANCH  25  34
HETATM   34  O3  UAP C   4      31.176  61.561  10.107  1.00 38.58    -0.393 OA
ATOM     35  H3  UAP C   4      31.570  60.701  10.023  1.00  0.00     0.210 HD
ENDBRANCH  25  34
BRANCH  27  36
HETATM   36  C6  UAP C   4      33.063  64.436   6.676  1.00 37.96     0.203 C 
HETATM   37  O6A UAP C   4      33.531  65.574   6.469  1.00 40.05    -0.646 OA
HETATM   38  O6B UAP C   4      32.873  63.592   5.774  1.00 36.71    -0.646 OA
ENDBRANCH  27  36
ENDBRANCH  22  23
ENDBRANCH  11  22
BRANCH  12  39
HETATM   39  C6  SGN C   3      34.686  67.714  10.593  1.00 42.65     0.227 C 
BRANCH  39  40
HETATM   40  O6  SGN C   3      35.519  68.837  10.234  1.00 51.09    -0.254 OA
BRANCH  40  41
HETATM   41  S2  SGN C   3      36.628  68.569   9.118  1.00 54.80     0.251 S 
HETATM   42  O4S SGN C   3      36.024  67.694   8.097  1.00 54.99    -0.572 OA
HETATM   43  O5S SGN C   3      37.775  67.906   9.808  1.00 53.99    -0.572 OA
HETATM   44  O6S SGN C   3      36.997  69.867   8.568  1.00 55.43    -0.572 OA
ENDBRANCH  40  41
ENDBRANCH  39  40
ENDBRANCH  12  39
ENDBRANCH   7   8
ENDBRANCH   4   7
BRANCH   3  45
HETATM   45  O3  IDS C   2      31.669  73.657  10.554  1.00 39.65    -0.390 OA
ATOM     46  H3  IDS C   2      30.848  73.968  10.191  1.00  0.00     0.210 HD
ENDBRANCH   3  45
BRANCH   5  47
HETATM   47  C6  IDS C   2      33.523  70.513  13.913  1.00 36.10     0.206 C 
HETATM   48  O6A IDS C   2      34.603  70.205  13.362  1.00 32.44    -0.646 OA
HETATM   49  O6B IDS C   2      32.967  69.825  14.802  1.00 33.44    -0.646 OA
ENDBRANCH   5  47
BRANCH   2  50
HETATM   50  O2  IDS C   2      30.494  75.060  12.659  1.00 43.59    -0.244 OA
BRANCH  50  51
HETATM   51  S   IDS C   2      30.978  76.526  12.254  1.00 44.11     0.252 S 
HETATM   52  O1S IDS C   2      32.271  76.772  12.978  1.00 44.48    -0.572 OA
HETATM   53  O2S IDS C   2      29.917  77.465  12.674  1.00 44.29    -0.572 OA
HETATM   54  O3S IDS C   2      31.158  76.527  10.813  1.00 44.74    -0.572 OA
ENDBRANCH  50  51
ENDBRANCH   2  50
BRANCH   1  55
HETATM   55  O4  SGN C   1      31.793  74.090  15.289  1.00 44.73    -0.348 OA
BRANCH  55  56
HETATM   56  C4  SGN C   1      31.201  74.028  16.605  1.00 48.25     0.186 C 
HETATM   57  C3  SGN C   1      32.161  73.325  17.573  1.00 48.43     0.178 C 
HETATM   58  C2  SGN C   1      31.611  73.393  18.997  1.00 48.58     0.181 C 
HETATM   59  C1  SGN C   1      31.279  74.827  19.404  1.00 50.40     0.283 C 
HETATM   60  O5  SGN C   1      30.380  75.413  18.455  1.00 50.82    -0.349 OA
HETATM   61  C5  SGN C   1      30.919  75.451  17.114  1.00 51.58     0.181 C 
BRANCH  57  62
HETATM   62  O3  SGN C   1      32.320  71.967  17.196  1.00 46.09    -0.391 OA
ATOM     63  H3  SGN C   1      33.180  71.665  17.466  1.00  0.00     0.210 HD
ENDBRANCH  57  62
BRANCH  58  64
HETATM   64  N2  SGN C   1      32.562  72.830  19.933  1.00 48.56    -0.289 N 
ATOM     65  H2  SGN C   1      33.485  73.235  20.092  1.00  0.00     0.175 HD
BRANCH  64  66
HETATM   66  S1  SGN C   1      32.031  71.476  20.723  1.00 47.67     0.205 S 
HETATM   67  O1S SGN C   1      32.133  70.356  19.762  1.00 47.59    -0.578 OA
HETATM   68  O2S SGN C   1      30.645  71.765  21.103  1.00 48.55    -0.578 OA
HETATM   69  O3S SGN C   1      32.915  71.296  21.895  1.00 47.08    -0.578 OA
ENDBRANCH  64  66
ENDBRANCH  58  64
BRANCH  59  70
HETATM   70  O1  SGN C   1      32.439  75.587  19.443  1.00 51.36    -0.369 OA
ATOM     71  H1  SGN C   1      32.923  75.398  20.238  1.00  0.00     0.212 HD
ENDBRANCH  59  70
BRANCH  61  72
HETATM   72  C6  SGN C   1      29.910  76.184  16.264  1.00 55.48     0.227 C 
BRANCH  72  73
HETATM   73  O6  SGN C   1      30.484  77.422  15.792  1.00 61.59    -0.254 OA
BRANCH  73  74
HETATM   74  S2  SGN C   1      29.779  78.744  16.335  1.00 65.98     0.251 S 
HETATM   75  O4S SGN C   1      28.768  79.184  15.273  1.00 65.09    -0.572 OA
HETATM   76  O5S SGN C   1      30.830  79.728  16.520  1.00 65.58    -0.572 OA
HETATM   77  O6S SGN C   1      29.084  78.375  17.683  1.00 65.84    -0.572 OA
ENDBRANCH  73  74
ENDBRANCH  72  73
ENDBRANCH  61  72
ENDBRANCH  55  56
ENDBRANCH   1  55
TORSDOF 27
ENDMDL
MODEL 59
REMARK VINA RESULT:      -5.4     15.153     19.904
REMARK  27 active torsions:
REMARK  status: ('A' for Active; 'I' for Inactive)
REMARK    1  A    between atoms: C1_1  and  O1_2 
REMARK    2  A    between atoms: S1_5  and  N2_7 
REMARK    3  A    between atoms: C2_6  and  N2_7 
REMARK    4  A    between atoms: S2_10  and  O6_22 
REMARK    5  A    between atoms: C3_11  and  O3_12 
REMARK    6  A    between atoms: C4_15  and  O4_16 
REMARK    7  A    between atoms: O4_16  and  C1_24 
REMARK    8  A    between atoms: C5_18  and  C6_21 
REMARK    9  A    between atoms: C6_21  and  O6_22 
REMARK   10  A    between atoms: C2_26  and  O2_27 
REMARK   11  A    between atoms: O2_27  and  S_40 
REMARK   12  A    between atoms: C3_29  and  O3_30 
REMARK   13  A    between atoms: C4_33  and  O4_34 
REMARK   14  A    between atoms: O4_34  and  C1_41 
REMARK   15  A    between atoms: C5_35  and  C6_37 
REMARK   16  A    between atoms: S1_43  and  N2_45 
REMARK   17  A    between atoms: C2_44  and  N2_45 
REMARK   18  A    between atoms: S2_48  and  O6_60 
REMARK   19  A    between atoms: C3_49  and  O3_50 
REMARK   20  A    between atoms: C4_53  and  O4_54 
REMARK   21  A    between atoms: O4_54  and  C1_62 
REMARK   22  A    between atoms: C5_56  and  C6_59 
REMARK   23  A    between atoms: C6_59  and  O6_60 
REMARK   24  A    between atoms: C2_64  and  O2_65 
REMARK   25  A    between atoms: O2_65  and  S_77 
REMARK   26  A    between atoms: C3_67  and  O3_68 
REMARK   27  A    between atoms: C5_72  and  C6_74 
ROOT
HETATM    1  C1  IDS C   2      25.976  89.295  12.003  1.00 40.81     0.294 C 
HETATM    2  C2  IDS C   2      26.556  87.976  12.520  1.00 40.20     0.231 C 
HETATM    3  C3  IDS C   2      26.040  86.793  11.706  1.00 39.01     0.185 C 
HETATM    4  C4  IDS C   2      24.503  86.696  11.783  1.00 37.65     0.195 C 
HETATM    5  C5  IDS C   2      23.916  88.054  12.190  1.00 35.99     0.257 C 
HETATM    6  O5  IDS C   2      24.629  89.116  11.513  1.00 39.00    -0.340 OA
ENDROOT
BRANCH   4   7
HETATM    7  O4  IDS C   2      23.971  86.290  10.498  1.00 35.98    -0.348 OA
BRANCH   7   8
HETATM    8  C1  SGN C   3      24.633  85.228   9.864  1.00 35.40     0.287 C 
HETATM    9  C2  SGN C   3      23.828  84.758   8.640  1.00 33.71     0.182 C 
HETATM   10  C3  SGN C   3      22.564  83.985   9.035  1.00 35.79     0.178 C 
HETATM   11  C4  SGN C   3      22.851  82.928  10.115  1.00 36.62     0.186 C 
HETATM   12  C5  SGN C   3      23.654  83.547  11.253  1.00 39.32     0.181 C 
HETATM   13  O5  SGN C   3      24.861  84.140  10.741  1.00 37.58    -0.349 OA
BRANCH   9  14
HETATM   14  N2  SGN C   3      23.442  85.904   7.846  1.00 29.28    -0.289 N 
ATOM     15  H2  SGN C   3      22.950  86.694   8.264  1.00  0.00     0.175 HD
BRANCH  14  16
HETATM   16  S1  SGN C   3      23.828  85.888   6.240  1.00 27.84     0.205 S 
HETATM   17  O1S SGN C   3      25.094  86.593   6.162  1.00 27.65    -0.578 OA
HETATM   18  O2S SGN C   3      22.717  86.621   5.563  1.00 27.72    -0.578 OA
HETATM   19  O3S SGN C   3      23.934  84.472   5.768  1.00 28.50    -0.578 OA
ENDBRANCH  14  16
ENDBRANCH   9  14
BRANCH  10  20
HETATM   20  O3  SGN C   3      22.006  83.364   7.880  1.00 34.89    -0.391 OA
ATOM     21  H3  SGN C   3      21.377  83.952   7.477  1.00  0.00     0.210 HD
ENDBRANCH  10  20
BRANCH  11  22
HETATM   22  O4  SGN C   3      21.605  82.443  10.646  1.00 37.13    -0.348 OA
BRANCH  22  23
HETATM   23  C1  UAP C   4      21.409  81.075  10.544  1.00 39.64     0.294 C 
HETATM   24  C2  UAP C   4      20.238  80.781   9.624  1.00 38.70     0.228 C 
HETATM   25  C3  UAP C   4      19.962  79.281   9.590  1.00 38.51     0.156 C 
HETATM   26  C4  UAP C   4      21.282  78.381   9.520  1.00 38.14     0.077 C 
HETATM   27  C5  UAP C   4      22.480  79.081   9.725  1.00 38.51     0.228 C 
HETATM   28  O5  UAP C   4      22.590  80.508   9.990  1.00 37.46    -0.343 OA
BRANCH  24  29
HETATM   29  O2  UAP C   4      19.028  81.435  10.125  1.00 40.54    -0.244 OA
BRANCH  29  30
HETATM   30  S   UAP C   4      18.142  82.370   9.175  1.00 40.49     0.252 S 
HETATM   31  O1S UAP C   4      19.076  83.180   8.379  1.00 40.89    -0.572 OA
HETATM   32  O2S UAP C   4      17.314  83.207  10.056  1.00 37.88    -0.572 OA
HETATM   33  O3S UAP C   4      17.327  81.482   8.332  1.00 37.47    -0.572 OA
ENDBRANCH  29  30
ENDBRANCH  24  29
BRANCH  25  34
HETATM   34  O3  UAP C   4      19.137  78.989   8.474  1.00 38.58    -0.393 OA
ATOM     35  H3  UAP C   4      19.367  79.570   7.758  1.00  0.00     0.210 HD
ENDBRANCH  25  34
BRANCH  27  36
HETATM   36  C6  UAP C   4      23.814  78.421   9.658  1.00 37.96     0.203 C 
HETATM   37  O6A UAP C   4      24.328  78.024  10.722  1.00 40.05    -0.646 OA
HETATM   38  O6B UAP C   4      24.357  78.298   8.539  1.00 36.71    -0.646 OA
ENDBRANCH  27  36
ENDBRANCH  22  23
ENDBRANCH  11  22
BRANCH  12  39
HETATM   39  C6  SGN C   3      24.059  82.573  12.324  1.00 42.65     0.227 C 
BRANCH  39  40
HETATM   40  O6  SGN C   3      25.034  83.266  13.133  1.00 51.09    -0.254 OA
BRANCH  40  41
HETATM   41  S2  SGN C   3      24.840  83.166  14.714  1.00 54.80     0.251 S 
HETATM   42  O4S SGN C   3      23.428  83.471  15.007  1.00 54.99    -0.572 OA
HETATM   43  O5S SGN C   3      25.763  84.171  15.322  1.00 53.99    -0.572 OA
HETATM   44  O6S SGN C   3      25.188  81.804  15.097  1.00 55.43    -0.572 OA
ENDBRANCH  40  41
ENDBRANCH  39  40
ENDBRANCH  12  39
ENDBRANCH   7   8
ENDBRANCH   4   7
BRANCH   3  45
HETATM   45  O3  IDS C   2      26.624  85.592  12.192  1.00 39.65    -0.390 OA
ATOM     46  H3  IDS C   2      25.939  84.965  12.393  1.00  0.00     0.210 HD
ENDBRANCH   3  45
BRANCH   5  47
HETATM   47  C6  IDS C   2      22.432  88.227  11.896  1.00 36.10     0.206 C 
HETATM   48  O6A IDS C   2      21.634  87.449  12.463  1.00 32.44    -0.646 OA
HETATM   49  O6B IDS C   2      22.082  89.144  11.115  1.00 33.44    -0.646 OA
ENDBRANCH   5  47
BRANCH   2  50
HETATM   50  O2  IDS C   2      28.009  88.003  12.415  1.00 43.59    -0.244 OA
BRANCH  50  51
HETATM   51  S   IDS C   2      28.692  88.289  11.001  1.00 44.11     0.252 S 
HETATM   52  O1S IDS C   2      28.369  89.712  10.643  1.00 44.48    -0.572 OA
HETATM   53  O2S IDS C   2      28.115  87.328  10.039  1.00 44.29    -0.572 OA
HETATM   54  O3S IDS C   2      30.119  88.086  11.174  1.00 44.74    -0.572 OA
ENDBRANCH  50  51
ENDBRANCH   2  50
BRANCH   1  55
HETATM   55  O4  SGN C   1      25.953  90.226  13.031  1.00 44.73    -0.348 OA
BRANCH  55  56
HETATM   56  C4  SGN C   1      26.146  91.614  12.683  1.00 48.25     0.186 C 
HETATM   57  C3  SGN C   1      24.800  92.348  12.713  1.00 48.43     0.178 C 
HETATM   58  C2  SGN C   1      25.015  93.846  12.499  1.00 48.58     0.181 C 
HETATM   59  C1  SGN C   1      26.038  94.413  13.481  1.00 50.40     0.283 C 
HETATM   60  O5  SGN C   1      27.265  93.678  13.393  1.00 50.82    -0.349 OA
HETATM   61  C5  SGN C   1      27.105  92.272  13.690  1.00 51.58     0.181 C 
BRANCH  57  62
HETATM   62  O3  SGN C   1      23.952  91.846  11.692  1.00 46.09    -0.391 OA
ATOM     63  H3  SGN C   1      24.144  90.926  11.549  1.00  0.00     0.210 HD
ENDBRANCH  57  62
BRANCH  58  64
HETATM   64  N2  SGN C   1      23.762  94.561  12.635  1.00 48.56    -0.289 N 
ATOM     65  H2  SGN C   1      23.249  94.612  13.515  1.00  0.00     0.175 HD
BRANCH  64  66
HETATM   66  S1  SGN C   1      23.232  95.289  11.247  1.00 47.67     0.205 S 
HETATM   67  O1S SGN C   1      22.366  96.415  11.661  1.00 47.59    -0.578 OA
HETATM   68  O2S SGN C   1      22.492  94.251  10.521  1.00 48.55    -0.578 OA
HETATM   69  O3S SGN C   1      24.437  95.741  10.518  1.00 47.08    -0.578 OA
ENDBRANCH  64  66
ENDBRANCH  58  64
BRANCH  59  70
HETATM   70  O1  SGN C   1      25.554  94.313  14.777  1.00 51.36    -0.369 OA
ATOM     71  H1  SGN C   1      25.713  95.124  15.245  1.00  0.00     0.212 HD
ENDBRANCH  59  70
BRANCH  61  72
HETATM   72  C6  SGN C   1      28.485  91.665  13.660  1.00 55.48     0.227 C 
BRANCH  72  73
HETATM   73  O6  SGN C   1      29.061  91.709  14.984  1.00 61.59    -0.254 OA
BRANCH  73  74
HETATM   74  S2  SGN C   1      30.068  90.522  15.324  1.00 65.98     0.251 S 
HETATM   75  O4S SGN C   1      29.871  89.443  14.256  1.00 65.09    -0.572 OA
HETATM   76  O5S SGN C   1      29.713  90.043  16.647  1.00 65.58    -0.572 OA
HETATM   77  O6S SGN C   1      31.510  91.119  15.289  1.00 65.84    -0.572 OA
ENDBRANCH  73  74
ENDBRANCH  72  73
ENDBRANCH  61  72
ENDBRANCH  55  56
ENDBRANCH   1  55
TORSDOF 27
ENDMDL
MODEL 60
REMARK VINA RESULT:      -5.4     15.285     21.082
REMARK  27 active torsions:
REMARK  status: ('A' for Active; 'I' for Inactive)
REMARK    1  A    between atoms: C1_1  and  O1_2 
REMARK    2  A    between atoms: S1_5  and  N2_7 
REMARK    3  A    between atoms: C2_6  and  N2_7 
REMARK    4  A    between atoms: S2_10  and  O6_22 
REMARK    5  A    between atoms: C3_11  and  O3_12 
REMARK    6  A    between atoms: C4_15  and  O4_16 
REMARK    7  A    between atoms: O4_16  and  C1_24 
REMARK    8  A    between atoms: C5_18  and  C6_21 
REMARK    9  A    between atoms: C6_21  and  O6_22 
REMARK   10  A    between atoms: C2_26  and  O2_27 
REMARK   11  A    between atoms: O2_27  and  S_40 
REMARK   12  A    between atoms: C3_29  and  O3_30 
REMARK   13  A    between atoms: C4_33  and  O4_34 
REMARK   14  A    between atoms: O4_34  and  C1_41 
REMARK   15  A    between atoms: C5_35  and  C6_37 
REMARK   16  A    between atoms: S1_43  and  N2_45 
REMARK   17  A    between atoms: C2_44  and  N2_45 
REMARK   18  A    between atoms: S2_48  and  O6_60 
REMARK   19  A    between atoms: C3_49  and  O3_50 
REMARK   20  A    between atoms: C4_53  and  O4_54 
REMARK   21  A    between atoms: O4_54  and  C1_62 
REMARK   22  A    between atoms: C5_56  and  C6_59 
REMARK   23  A    between atoms: C6_59  and  O6_60 
REMARK   24  A    between atoms: C2_64  and  O2_65 
REMARK   25  A    between atoms: O2_65  and  S_77 
REMARK   26  A    between atoms: C3_67  and  O3_68 
REMARK   27  A    between atoms: C5_72  and  C6_74 
ROOT
HETATM    1  C1  IDS C   2      21.957  84.991  11.177  1.00 40.81     0.294 C 
HETATM    2  C2  IDS C   2      21.515  86.212  11.986  1.00 40.20     0.231 C 
HETATM    3  C3  IDS C   2      22.521  87.352  11.852  1.00 39.01     0.185 C 
HETATM    4  C4  IDS C   2      23.912  86.926  12.362  1.00 37.65     0.195 C 
HETATM    5  C5  IDS C   2      24.021  85.395  12.360  1.00 35.99     0.257 C 
HETATM    6  O5  IDS C   2      23.396  84.865  11.166  1.00 39.00    -0.340 OA
ENDROOT
BRANCH   4   7
HETATM    7  O4  IDS C   2      24.942  87.498  11.518  1.00 35.98    -0.348 OA
BRANCH   7   8
HETATM    8  C1  SGN C   3      25.432  88.752  11.909  1.00 35.40     0.287 C 
HETATM    9  C2  SGN C   3      25.716  89.619  10.670  1.00 33.71     0.182 C 
HETATM   10  C3  SGN C   3      26.964  89.157   9.908  1.00 35.79     0.178 C 
HETATM   11  C4  SGN C   3      28.150  88.900  10.852  1.00 36.62     0.186 C 
HETATM   12  C5  SGN C   3      27.708  88.032  12.024  1.00 39.32     0.181 C 
HETATM   13  O5  SGN C   3      26.600  88.647  12.704  1.00 37.58    -0.349 OA
BRANCH   9  14
HETATM   14  N2  SGN C   3      24.580  89.570   9.775  1.00 29.28    -0.289 N 
ATOM     15  H2  SGN C   3      24.297  88.697   9.330  1.00  0.00     0.175 HD
BRANCH  14  16
HETATM   16  S1  SGN C   3      23.759  90.976   9.500  1.00 27.84     0.205 S 
HETATM   17  O1S SGN C   3      22.895  90.679   8.373  1.00 27.65    -0.578 OA
HETATM   18  O2S SGN C   3      24.809  91.985   9.172  1.00 27.72    -0.578 OA
HETATM   19  O3S SGN C   3      22.987  91.350  10.727  1.00 28.50    -0.578 OA
ENDBRANCH  14  16
ENDBRANCH   9  14
BRANCH  10  20
HETATM   20  O3  SGN C   3      27.317  90.137   8.935  1.00 34.89    -0.391 OA
ATOM     21  H3  SGN C   3      27.417  90.982   9.358  1.00  0.00     0.210 HD
ENDBRANCH  10  20
BRANCH  11  22
HETATM   22  O4  SGN C   3      29.185  88.204  10.133  1.00 37.13    -0.348 OA
BRANCH  22  23
HETATM   23  C1  UAP C   4      30.324  88.948   9.866  1.00 39.64     0.294 C 
HETATM   24  C2  UAP C   4      30.472  89.157   8.370  1.00 38.70     0.228 C 
HETATM   25  C3  UAP C   4      31.776  89.890   8.070  1.00 38.51     0.156 C 
HETATM   26  C4  UAP C   4      32.093  91.086   9.082  1.00 38.14     0.077 C 
HETATM   27  C5  UAP C   4      31.258  91.139  10.208  1.00 38.51     0.228 C 
HETATM   28  O5  UAP C   4      30.175  90.211  10.499  1.00 37.46    -0.343 OA
BRANCH  24  29
HETATM   29  O2  UAP C   4      30.532  87.864   7.685  1.00 40.54    -0.244 OA
BRANCH  29  30
HETATM   30  S   UAP C   4      29.428  87.452   6.601  1.00 40.49     0.252 S 
HETATM   31  O1S UAP C   4      28.976  86.096   6.944  1.00 40.89    -0.572 OA
HETATM   32  O2S UAP C   4      30.088  87.489   5.288  1.00 37.88    -0.572 OA
HETATM   33  O3S UAP C   4      28.338  88.436   6.698  1.00 37.47    -0.572 OA
ENDBRANCH  29  30
ENDBRANCH  24  29
BRANCH  25  34
HETATM   34  O3  UAP C   4      31.727  90.397   6.746  1.00 38.58    -0.393 OA
ATOM     35  H3  UAP C   4      32.061  91.286   6.742  1.00  0.00     0.210 HD
ENDBRANCH  25  34
BRANCH  27  36
HETATM   36  C6  UAP C   4      31.375  92.206  11.241  1.00 37.96     0.203 C 
HETATM   37  O6A UAP C   4      31.599  93.372  10.860  1.00 40.05    -0.646 OA
HETATM   38  O6B UAP C   4      31.245  91.883  12.441  1.00 36.71    -0.646 OA
ENDBRANCH  27  36
ENDBRANCH  22  23
ENDBRANCH  11  22
BRANCH  12  39
HETATM   39  C6  SGN C   3      28.779  87.791  13.052  1.00 42.65     0.227 C 
BRANCH  39  40
HETATM   40  O6  SGN C   3      29.347  89.088  13.335  1.00 51.09    -0.254 OA
BRANCH  40  41
HETATM   41  S2  SGN C   3      29.337  89.547  14.864  1.00 54.80     0.251 S 
HETATM   42  O4S SGN C   3      30.704  89.370  15.387  1.00 54.99    -0.572 OA
HETATM   43  O5S SGN C   3      28.356  88.668  15.567  1.00 53.99    -0.572 OA
HETATM   44  O6S SGN C   3      28.929  90.946  14.882  1.00 55.43    -0.572 OA
ENDBRANCH  40  41
ENDBRANCH  39  40
ENDBRANCH  12  39
ENDBRANCH   7   8
ENDBRANCH   4   7
BRANCH   3  45
HETATM   45  O3  IDS C   2      22.062  88.479  12.587  1.00 39.65    -0.390 OA
ATOM     46  H3  IDS C   2      21.115  88.449  12.653  1.00  0.00     0.210 HD
ENDBRANCH   3  45
BRANCH   5  47
HETATM   47  C6  IDS C   2      25.441  84.852  12.424  1.00 36.10     0.206 C 
HETATM   48  O6A IDS C   2      26.139  85.168  13.413  1.00 32.44    -0.646 OA
HETATM   49  O6B IDS C   2      25.836  84.106  11.496  1.00 33.44    -0.646 OA
ENDBRANCH   5  47
BRANCH   2  50
HETATM   50  O2  IDS C   2      20.224  86.683  11.500  1.00 43.59    -0.244 OA
BRANCH  50  51
HETATM   51  S   IDS C   2      18.992  86.788  12.508  1.00 44.11     0.252 S 
HETATM   52  O1S IDS C   2      19.068  85.590  13.412  1.00 44.48    -0.572 OA
HETATM   53  O2S IDS C   2      17.761  86.791  11.690  1.00 44.29    -0.572 OA
HETATM   54  O3S IDS C   2      19.152  88.030  13.243  1.00 44.74    -0.572 OA
ENDBRANCH  50  51
ENDBRANCH   2  50
BRANCH   1  55
HETATM   55  O4  SGN C   1      21.417  83.843  11.740  1.00 44.73    -0.348 OA
BRANCH  55  56
HETATM   56  C4  SGN C   1      21.457  82.630  10.957  1.00 48.25     0.186 C 
HETATM   57  C3  SGN C   1      22.236  81.548  11.715  1.00 48.43     0.178 C 
HETATM   58  C2  SGN C   1      22.151  80.219  10.967  1.00 48.58     0.181 C 
HETATM   59  C1  SGN C   1      20.703  79.831  10.672  1.00 50.40     0.283 C 
HETATM   60  O5  SGN C   1      20.045  80.888   9.962  1.00 50.82    -0.349 OA
HETATM   61  C5  SGN C   1      20.025  82.134  10.695  1.00 51.58     0.181 C 
BRANCH  57  62
HETATM   62  O3  SGN C   1      23.597  81.929  11.841  1.00 46.09    -0.391 OA
ATOM     63  H3  SGN C   1      23.659  82.878  11.828  1.00  0.00     0.210 HD
ENDBRANCH  57  62
BRANCH  58  64
HETATM   64  N2  SGN C   1      22.790  79.167  11.731  1.00 48.56    -0.289 N 
ATOM     65  H2  SGN C   1      22.459  78.875  12.651  1.00  0.00     0.175 HD
BRANCH  64  66
HETATM   66  S1  SGN C   1      24.099  78.477  10.991  1.00 47.67     0.205 S 
HETATM   67  O1S SGN C   1      25.025  79.579  10.650  1.00 47.59    -0.578 OA
HETATM   68  O2S SGN C   1      23.566  77.806   9.801  1.00 48.55    -0.578 OA
HETATM   69  O3S SGN C   1      24.684  77.528  11.963  1.00 47.08    -0.578 OA
ENDBRANCH  64  66
ENDBRANCH  58  64
BRANCH  59  70
HETATM   70  O1  SGN C   1      20.024  79.605  11.859  1.00 51.36    -0.369 OA
ATOM     71  H1  SGN C   1      19.541  80.384  12.109  1.00  0.00     0.212 HD
ENDBRANCH  59  70
BRANCH  61  72
HETATM   72  C6  SGN C   1      19.215  83.105   9.872  1.00 55.48     0.227 C 
BRANCH  72  73
HETATM   73  O6  SGN C   1      18.153  83.655  10.682  1.00 61.59    -0.254 OA
BRANCH  73  74
HETATM   74  S2  SGN C   1      16.678  83.314  10.186  1.00 65.98     0.251 S 
HETATM   75  O4S SGN C   1      15.712  84.128  11.049  1.00 65.09    -0.572 OA
HETATM   76  O5S SGN C   1      16.498  81.886  10.374  1.00 65.58    -0.572 OA
HETATM   77  O6S SGN C   1      16.594  83.716   8.680  1.00 65.84    -0.572 OA
ENDBRANCH  73  74
ENDBRANCH  72  73
ENDBRANCH  61  72
ENDBRANCH  55  56
ENDBRANCH   1  55
TORSDOF 27
ENDMDL
MODEL 61
REMARK VINA RESULT:      -5.4     11.033     15.696
REMARK  27 active torsions:
REMARK  status: ('A' for Active; 'I' for Inactive)
REMARK    1  A    between atoms: C1_1  and  O1_2 
REMARK    2  A    between atoms: S1_5  and  N2_7 
REMARK    3  A    between atoms: C2_6  and  N2_7 
REMARK    4  A    between atoms: S2_10  and  O6_22 
REMARK    5  A    between atoms: C3_11  and  O3_12 
REMARK    6  A    between atoms: C4_15  and  O4_16 
REMARK    7  A    between atoms: O4_16  and  C1_24 
REMARK    8  A    between atoms: C5_18  and  C6_21 
REMARK    9  A    between atoms: C6_21  and  O6_22 
REMARK   10  A    between atoms: C2_26  and  O2_27 
REMARK   11  A    between atoms: O2_27  and  S_40 
REMARK   12  A    between atoms: C3_29  and  O3_30 
REMARK   13  A    between atoms: C4_33  and  O4_34 
REMARK   14  A    between atoms: O4_34  and  C1_41 
REMARK   15  A    between atoms: C5_35  and  C6_37 
REMARK   16  A    between atoms: S1_43  and  N2_45 
REMARK   17  A    between atoms: C2_44  and  N2_45 
REMARK   18  A    between atoms: S2_48  and  O6_60 
REMARK   19  A    between atoms: C3_49  and  O3_50 
REMARK   20  A    between atoms: C4_53  and  O4_54 
REMARK   21  A    between atoms: O4_54  and  C1_62 
REMARK   22  A    between atoms: C5_56  and  C6_59 
REMARK   23  A    between atoms: C6_59  and  O6_60 
REMARK   24  A    between atoms: C2_64  and  O2_65 
REMARK   25  A    between atoms: O2_65  and  S_77 
REMARK   26  A    between atoms: C3_67  and  O3_68 
REMARK   27  A    between atoms: C5_72  and  C6_74 
ROOT
HETATM    1  C1  IDS C   2      28.175  86.297  13.658  1.00 40.81     0.294 C 
HETATM    2  C2  IDS C   2      28.303  85.518  14.970  1.00 40.20     0.231 C 
HETATM    3  C3  IDS C   2      29.215  84.306  14.801  1.00 39.01     0.185 C 
HETATM    4  C4  IDS C   2      28.663  83.343  13.732  1.00 37.65     0.195 C 
HETATM    5  C5  IDS C   2      27.695  84.091  12.806  1.00 35.99     0.257 C 
HETATM    6  O5  IDS C   2      28.218  85.410  12.518  1.00 39.00    -0.340 OA
ENDROOT
BRANCH   4   7
HETATM    7  O4  IDS C   2      29.757  82.786  12.960  1.00 35.98    -0.348 OA
BRANCH   7   8
HETATM    8  C1  SGN C   3      30.887  82.391  13.689  1.00 35.40     0.287 C 
HETATM    9  C2  SGN C   3      32.108  82.284  12.758  1.00 33.71     0.182 C 
HETATM   10  C3  SGN C   3      32.035  81.057  11.841  1.00 35.79     0.178 C 
HETATM   11  C4  SGN C   3      31.648  79.785  12.614  1.00 36.62     0.186 C 
HETATM   12  C5  SGN C   3      30.429  80.054  13.488  1.00 39.32     0.181 C 
HETATM   13  O5  SGN C   3      30.686  81.164  14.367  1.00 37.58    -0.349 OA
BRANCH   9  14
HETATM   14  N2  SGN C   3      32.195  83.473  11.938  1.00 29.28    -0.289 N 
ATOM     15  H2  SGN C   3      31.439  83.733  11.304  1.00  0.00     0.175 HD
BRANCH  14  16
HETATM   16  S1  SGN C   3      33.561  84.392  12.063  1.00 27.84     0.205 S 
HETATM   17  O1S SGN C   3      33.167  85.700  11.575  1.00 27.65    -0.578 OA
HETATM   18  O2S SGN C   3      34.565  83.725  11.182  1.00 27.72    -0.578 OA
HETATM   19  O3S SGN C   3      34.007  84.428  13.492  1.00 28.50    -0.578 OA
ENDBRANCH  14  16
ENDBRANCH   9  14
BRANCH  10  20
HETATM   20  O3  SGN C   3      33.292  80.872  11.194  1.00 34.89    -0.391 OA
ATOM     21  H3  SGN C   3      33.737  80.124  11.575  1.00  0.00     0.210 HD
ENDBRANCH  10  20
BRANCH  11  22
HETATM   22  O4  SGN C   3      31.318  78.744  11.677  1.00 37.13    -0.348 OA
BRANCH  22  23
HETATM   23  C1  UAP C   4      31.104  79.166  10.374  1.00 39.64     0.294 C 
HETATM   24  C2  UAP C   4      31.859  78.273   9.406  1.00 38.70     0.228 C 
HETATM   25  C3  UAP C   4      31.702  78.796   7.981  1.00 38.51     0.156 C 
HETATM   26  C4  UAP C   4      30.221  79.286   7.631  1.00 38.14     0.077 C 
HETATM   27  C5  UAP C   4      29.356  79.374   8.732  1.00 38.51     0.228 C 
HETATM   28  O5  UAP C   4      29.711  79.064  10.110  1.00 37.46    -0.343 OA
BRANCH  24  29
HETATM   29  O2  UAP C   4      33.289  78.288   9.719  1.00 40.54    -0.244 OA
BRANCH  29  30
HETATM   30  S   UAP C   4      34.090  76.926   9.979  1.00 40.49     0.252 S 
HETATM   31  O1S UAP C   4      35.522  77.260   9.949  1.00 40.89    -0.572 OA
HETATM   32  O2S UAP C   4      33.724  76.005   8.894  1.00 37.88    -0.572 OA
HETATM   33  O3S UAP C   4      33.671  76.422  11.297  1.00 37.47    -0.572 OA
ENDBRANCH  29  30
ENDBRANCH  24  29
BRANCH  25  34
HETATM   34  O3  UAP C   4      32.085  77.777   7.071  1.00 38.58    -0.393 OA
ATOM     35  H3  UAP C   4      33.018  77.619   7.159  1.00  0.00     0.210 HD
ENDBRANCH  25  34
BRANCH  27  36
HETATM   36  C6  UAP C   4      27.928  79.773   8.598  1.00 37.96     0.203 C 
HETATM   37  O6A UAP C   4      27.082  78.878   8.403  1.00 40.05    -0.646 OA
HETATM   38  O6B UAP C   4      27.643  80.987   8.684  1.00 36.71    -0.646 OA
ENDBRANCH  27  36
ENDBRANCH  22  23
ENDBRANCH  11  22
BRANCH  12  39
HETATM   39  C6  SGN C   3      30.019  78.893  14.351  1.00 42.65     0.227 C 
BRANCH  39  40
HETATM   40  O6  SGN C   3      28.853  78.327  13.715  1.00 51.09    -0.254 OA
BRANCH  40  41
HETATM   41  S2  SGN C   3      27.438  78.778  14.301  1.00 54.80     0.251 S 
HETATM   42  O4S SGN C   3      26.747  79.542  13.247  1.00 54.99    -0.572 OA
HETATM   43  O5S SGN C   3      27.723  79.622  15.500  1.00 53.99    -0.572 OA
HETATM   44  O6S SGN C   3      26.717  77.561  14.648  1.00 55.43    -0.572 OA
ENDBRANCH  40  41
ENDBRANCH  39  40
ENDBRANCH  12  39
ENDBRANCH   7   8
ENDBRANCH   4   7
BRANCH   3  45
HETATM   45  O3  IDS C   2      29.337  83.628  16.044  1.00 39.65    -0.390 OA
ATOM     46  H3  IDS C   2      28.726  83.999  16.669  1.00  0.00     0.210 HD
ENDBRANCH   3  45
BRANCH   5  47
HETATM   47  C6  IDS C   2      27.411  83.401  11.479  1.00 36.10     0.206 C 
HETATM   48  O6A IDS C   2      26.705  82.369  11.501  1.00 32.44    -0.646 OA
HETATM   49  O6B IDS C   2      27.884  83.906  10.432  1.00 33.44    -0.646 OA
ENDBRANCH   5  47
BRANCH   2  50
HETATM   50  O2  IDS C   2      28.873  86.379  15.998  1.00 43.59    -0.244 OA
BRANCH  50  51
HETATM   51  S   IDS C   2      27.991  86.783  17.266  1.00 44.11     0.252 S 
HETATM   52  O1S IDS C   2      26.830  85.830  17.309  1.00 44.48    -0.572 OA
HETATM   53  O2S IDS C   2      27.556  88.182  17.063  1.00 44.29    -0.572 OA
HETATM   54  O3S IDS C   2      28.844  86.649  18.433  1.00 44.74    -0.572 OA
ENDBRANCH  50  51
ENDBRANCH   2  50
BRANCH   1  55
HETATM   55  O4  SGN C   1      26.967  86.980  13.642  1.00 44.73    -0.348 OA
BRANCH  55  56
HETATM   56  C4  SGN C   1      26.668  87.784  12.479  1.00 48.25     0.186 C 
HETATM   57  C3  SGN C   1      25.252  87.470  11.982  1.00 48.43     0.178 C 
HETATM   58  C2  SGN C   1      24.869  88.424  10.851  1.00 48.58     0.181 C 
HETATM   59  C1  SGN C   1      25.062  89.884  11.258  1.00 50.40     0.283 C 
HETATM   60  O5  SGN C   1      26.405  90.098  11.707  1.00 50.82    -0.349 OA
HETATM   61  C5  SGN C   1      26.759  89.275  12.844  1.00 51.58     0.181 C 
BRANCH  57  62
HETATM   62  O3  SGN C   1      25.190  86.134  11.509  1.00 46.09    -0.391 OA
ATOM     63  H3  SGN C   1      25.194  85.538  12.250  1.00  0.00     0.210 HD
ENDBRANCH  57  62
BRANCH  58  64
HETATM   64  N2  SGN C   1      23.494  88.208  10.450  1.00 48.56    -0.289 N 
ATOM     65  H2  SGN C   1      22.710  88.315  11.093  1.00  0.00     0.175 HD
BRANCH  64  66
HETATM   66  S1  SGN C   1      23.300  87.773   8.866  1.00 47.67     0.205 S 
HETATM   67  O1S SGN C   1      22.440  88.804   8.244  1.00 47.59    -0.578 OA
HETATM   68  O2S SGN C   1      22.660  86.455   8.898  1.00 48.55    -0.578 OA
HETATM   69  O3S SGN C   1      24.653  87.732   8.269  1.00 47.08    -0.578 OA
ENDBRANCH  64  66
ENDBRANCH  58  64
BRANCH  59  70
HETATM   70  O1  SGN C   1      24.193  90.204  12.291  1.00 51.36    -0.369 OA
ATOM     71  H1  SGN C   1      24.663  90.659  12.979  1.00  0.00     0.212 HD
ENDBRANCH  59  70
BRANCH  61  72
HETATM   72  C6  SGN C   1      28.149  89.689  13.259  1.00 55.48     0.227 C 
BRANCH  72  73
HETATM   73  O6  SGN C   1      28.467  90.970  12.675  1.00 61.59    -0.254 OA
BRANCH  73  74
HETATM   74  S2  SGN C   1      28.513  92.189  13.701  1.00 65.98     0.251 S 
HETATM   75  O4S SGN C   1      27.138  92.859  13.668  1.00 65.09    -0.572 OA
HETATM   76  O5S SGN C   1      29.560  93.081  13.236  1.00 65.58    -0.572 OA
HETATM   77  O6S SGN C   1      28.839  91.594  15.107  1.00 65.84    -0.572 OA
ENDBRANCH  73  74
ENDBRANCH  72  73
ENDBRANCH  61  72
ENDBRANCH  55  56
ENDBRANCH   1  55
TORSDOF 27
ENDMDL
MODEL 62
REMARK VINA RESULT:      -5.4     15.305     21.243
REMARK  27 active torsions:
REMARK  status: ('A' for Active; 'I' for Inactive)
REMARK    1  A    between atoms: C1_1  and  O1_2 
REMARK    2  A    between atoms: S1_5  and  N2_7 
REMARK    3  A    between atoms: C2_6  and  N2_7 
REMARK    4  A    between atoms: S2_10  and  O6_22 
REMARK    5  A    between atoms: C3_11  and  O3_12 
REMARK    6  A    between atoms: C4_15  and  O4_16 
REMARK    7  A    between atoms: O4_16  and  C1_24 
REMARK    8  A    between atoms: C5_18  and  C6_21 
REMARK    9  A    between atoms: C6_21  and  O6_22 
REMARK   10  A    between atoms: C2_26  and  O2_27 
REMARK   11  A    between atoms: O2_27  and  S_40 
REMARK   12  A    between atoms: C3_29  and  O3_30 
REMARK   13  A    between atoms: C4_33  and  O4_34 
REMARK   14  A    between atoms: O4_34  and  C1_41 
REMARK   15  A    between atoms: C5_35  and  C6_37 
REMARK   16  A    between atoms: S1_43  and  N2_45 
REMARK   17  A    between atoms: C2_44  and  N2_45 
REMARK   18  A    between atoms: S2_48  and  O6_60 
REMARK   19  A    between atoms: C3_49  and  O3_50 
REMARK   20  A    between atoms: C4_53  and  O4_54 
REMARK   21  A    between atoms: O4_54  and  C1_62 
REMARK   22  A    between atoms: C5_56  and  C6_59 
REMARK   23  A    between atoms: C6_59  and  O6_60 
REMARK   24  A    between atoms: C2_64  and  O2_65 
REMARK   25  A    between atoms: O2_65  and  S_77 
REMARK   26  A    between atoms: C3_67  and  O3_68 
REMARK   27  A    between atoms: C5_72  and  C6_74 
ROOT
HETATM    1  C1  IDS C   2      21.367  85.009  10.905  1.00 40.81     0.294 C 
HETATM    2  C2  IDS C   2      20.883  86.267  11.631  1.00 40.20     0.231 C 
HETATM    3  C3  IDS C   2      21.783  87.460  11.318  1.00 39.01     0.185 C 
HETATM    4  C4  IDS C   2      23.235  87.188  11.760  1.00 37.65     0.195 C 
HETATM    5  C5  IDS C   2      23.466  85.677  11.888  1.00 35.99     0.257 C 
HETATM    6  O5  IDS C   2      22.808  84.989  10.798  1.00 39.00    -0.340 OA
ENDROOT
BRANCH   4   7
HETATM    7  O4  IDS C   2      24.156  87.751  10.793  1.00 35.98    -0.348 OA
BRANCH   7   8
HETATM    8  C1  SGN C   3      23.856  89.042  10.335  1.00 35.40     0.287 C 
HETATM    9  C2  SGN C   3      24.691  89.367   9.084  1.00 33.71     0.182 C 
HETATM   10  C3  SGN C   3      26.165  89.623   9.417  1.00 35.79     0.178 C 
HETATM   11  C4  SGN C   3      26.326  90.573  10.616  1.00 36.62     0.186 C 
HETATM   12  C5  SGN C   3      25.437  90.119  11.767  1.00 39.32     0.181 C 
HETATM   13  O5  SGN C   3      24.070  90.027  11.330  1.00 37.58    -0.349 OA
BRANCH   9  14
HETATM   14  N2  SGN C   3      24.609  88.266   8.149  1.00 29.28    -0.289 N 
ATOM     15  H2  SGN C   3      24.944  87.335   8.400  1.00  0.00     0.175 HD
BRANCH  14  16
HETATM   16  S1  SGN C   3      23.957  88.568   6.663  1.00 27.84     0.205 S 
HETATM   17  O1S SGN C   3      24.672  89.735   6.181  1.00 27.65    -0.578 OA
HETATM   18  O2S SGN C   3      22.511  88.843   6.918  1.00 27.72    -0.578 OA
HETATM   19  O3S SGN C   3      24.153  87.375   5.781  1.00 28.50    -0.578 OA
ENDBRANCH  14  16
ENDBRANCH   9  14
BRANCH  10  20
HETATM   20  O3  SGN C   3      26.824  90.162   8.274  1.00 34.89    -0.391 OA
ATOM     21  H3  SGN C   3      27.309  89.474   7.834  1.00  0.00     0.210 HD
ENDBRANCH  10  20
BRANCH  11  22
HETATM   22  O4  SGN C   3      27.695  90.548  11.058  1.00 37.13    -0.348 OA
BRANCH  22  23
HETATM   23  C1  UAP C   4      28.151  89.319  11.508  1.00 39.64     0.294 C 
HETATM   24  C2  UAP C   4      29.436  88.944  10.791  1.00 38.70     0.228 C 
HETATM   25  C3  UAP C   4      29.884  87.549  11.216  1.00 38.51     0.156 C 
HETATM   26  C4  UAP C   4      29.728  87.267  12.782  1.00 38.14     0.077 C 
HETATM   27  C5  UAP C   4      29.006  88.243  13.484  1.00 38.51     0.228 C 
HETATM   28  O5  UAP C   4      28.413  89.438  12.901  1.00 37.46    -0.343 OA
BRANCH  24  29
HETATM   29  O2  UAP C   4      29.212  88.908   9.345  1.00 40.54    -0.244 OA
BRANCH  29  30
HETATM   30  S   UAP C   4      30.101  89.794   8.351  1.00 40.49     0.252 S 
HETATM   31  O1S UAP C   4      29.829  91.203   8.673  1.00 40.89    -0.572 OA
HETATM   32  O2S UAP C   4      29.673  89.457   6.985  1.00 37.88    -0.572 OA
HETATM   33  O3S UAP C   4      31.508  89.436   8.593  1.00 37.47    -0.572 OA
ENDBRANCH  29  30
ENDBRANCH  24  29
BRANCH  25  34
HETATM   34  O3  UAP C   4      31.240  87.365  10.839  1.00 38.58    -0.393 OA
ATOM     35  H3  UAP C   4      31.399  86.439  10.701  1.00  0.00     0.210 HD
ENDBRANCH  25  34
BRANCH  27  36
HETATM   36  C6  UAP C   4      28.791  88.175  14.957  1.00 37.96     0.203 C 
HETATM   37  O6A UAP C   4      27.665  88.473  15.402  1.00 40.05    -0.646 OA
HETATM   38  O6B UAP C   4      29.749  87.824  15.678  1.00 36.71    -0.646 OA
ENDBRANCH  27  36
ENDBRANCH  22  23
ENDBRANCH  11  22
BRANCH  12  39
HETATM   39  C6  SGN C   3      25.459  91.032  12.961  1.00 42.65     0.227 C 
BRANCH  39  40
HETATM   40  O6  SGN C   3      25.814  92.335  12.450  1.00 51.09    -0.254 OA
BRANCH  40  41
HETATM   41  S2  SGN C   3      24.959  93.567  12.997  1.00 54.80     0.251 S 
HETATM   42  O4S SGN C   3      25.097  94.666  12.024  1.00 54.99    -0.572 OA
HETATM   43  O5S SGN C   3      25.534  93.929  14.327  1.00 53.99    -0.572 OA
HETATM   44  O6S SGN C   3      23.580  93.110  13.103  1.00 55.43    -0.572 OA
ENDBRANCH  40  41
ENDBRANCH  39  40
ENDBRANCH  12  39
ENDBRANCH   7   8
ENDBRANCH   4   7
BRANCH   3  45
HETATM   45  O3  IDS C   2      21.285  88.614  11.980  1.00 39.65    -0.390 OA
ATOM     46  H3  IDS C   2      20.528  88.946  11.513  1.00  0.00     0.210 HD
ENDBRANCH   3  45
BRANCH   5  47
HETATM   47  C6  IDS C   2      24.928  85.249  11.895  1.00 36.10     0.206 C 
HETATM   48  O6A IDS C   2      25.650  85.668  12.826  1.00 32.44    -0.646 OA
HETATM   49  O6B IDS C   2      25.330  84.489  10.983  1.00 33.44    -0.646 OA
ENDBRANCH   5  47
BRANCH   2  50
HETATM   50  O2  IDS C   2      19.529  86.591  11.201  1.00 43.59    -0.244 OA
BRANCH  50  51
HETATM   51  S   IDS C   2      18.382  86.792  12.293  1.00 44.11     0.252 S 
HETATM   52  O1S IDS C   2      18.502  85.650  13.263  1.00 44.48    -0.572 OA
HETATM   53  O2S IDS C   2      17.091  86.778  11.573  1.00 44.29    -0.572 OA
HETATM   54  O3S IDS C   2      18.628  88.072  12.932  1.00 44.74    -0.572 OA
ENDBRANCH  50  51
ENDBRANCH   2  50
BRANCH   1  55
HETATM   55  O4  SGN C   1      20.961  83.884  11.609  1.00 44.73    -0.348 OA
BRANCH  55  56
HETATM   56  C4  SGN C   1      21.069  82.604  10.947  1.00 48.25     0.186 C 
HETATM   57  C3  SGN C   1      21.993  81.681  11.751  1.00 48.43     0.178 C 
HETATM   58  C2  SGN C   1      21.990  80.279  11.144  1.00 48.58     0.181 C 
HETATM   59  C1  SGN C   1      20.571  79.735  10.990  1.00 50.40     0.283 C 
HETATM   60  O5  SGN C   1      19.773  80.649  10.229  1.00 50.82    -0.349 OA
HETATM   61  C5  SGN C   1      19.678  81.959  10.836  1.00 51.58     0.181 C 
BRANCH  57  62
HETATM   62  O3  SGN C   1      23.316  82.193  11.742  1.00 46.09    -0.391 OA
ATOM     63  H3  SGN C   1      23.697  82.064  10.881  1.00  0.00     0.210 HD
ENDBRANCH  57  62
BRANCH  58  64
HETATM   64  N2  SGN C   1      22.772  79.373  11.960  1.00 48.56    -0.289 N 
ATOM     65  H2  SGN C   1      22.528  79.150  12.925  1.00  0.00     0.175 HD
BRANCH  64  66
HETATM   66  S1  SGN C   1      24.094  78.729  11.201  1.00 47.67     0.205 S 
HETATM   67  O1S SGN C   1      23.599  78.066   9.975  1.00 47.59    -0.578 OA
HETATM   68  O2S SGN C   1      24.670  77.780  12.158  1.00 48.55    -0.578 OA
HETATM   69  O3S SGN C   1      25.003  79.858  10.904  1.00 47.08    -0.578 OA
ENDBRANCH  64  66
ENDBRANCH  58  64
BRANCH  59  70
HETATM   70  O1  SGN C   1      19.990  79.574  12.240  1.00 51.36    -0.369 OA
ATOM     71  H1  SGN C   1      19.860  80.422  12.647  1.00  0.00     0.212 HD
ENDBRANCH  59  70
BRANCH  61  72
HETATM   72  C6  SGN C   1      18.730  82.763   9.982  1.00 55.48     0.227 C 
BRANCH  72  73
HETATM   73  O6  SGN C   1      17.927  83.618  10.824  1.00 61.59    -0.254 OA
BRANCH  73  74
HETATM   74  S2  SGN C   1      16.361  83.327  10.786  1.00 65.98     0.251 S 
HETATM   75  O4S SGN C   1      16.185  81.846  10.444  1.00 65.09    -0.572 OA
HETATM   76  O5S SGN C   1      15.805  84.188   9.759  1.00 65.58    -0.572 OA
HETATM   77  O6S SGN C   1      15.795  83.669  12.200  1.00 65.84    -0.572 OA
ENDBRANCH  73  74
ENDBRANCH  72  73
ENDBRANCH  61  72
ENDBRANCH  55  56
ENDBRANCH   1  55
TORSDOF 27
ENDMDL
MODEL 63
REMARK VINA RESULT:      -5.4     16.156     21.777
REMARK  27 active torsions:
REMARK  status: ('A' for Active; 'I' for Inactive)
REMARK    1  A    between atoms: C1_1  and  O1_2 
REMARK    2  A    between atoms: S1_5  and  N2_7 
REMARK    3  A    between atoms: C2_6  and  N2_7 
REMARK    4  A    between atoms: S2_10  and  O6_22 
REMARK    5  A    between atoms: C3_11  and  O3_12 
REMARK    6  A    between atoms: C4_15  and  O4_16 
REMARK    7  A    between atoms: O4_16  and  C1_24 
REMARK    8  A    between atoms: C5_18  and  C6_21 
REMARK    9  A    between atoms: C6_21  and  O6_22 
REMARK   10  A    between atoms: C2_26  and  O2_27 
REMARK   11  A    between atoms: O2_27  and  S_40 
REMARK   12  A    between atoms: C3_29  and  O3_30 
REMARK   13  A    between atoms: C4_33  and  O4_34 
REMARK   14  A    between atoms: O4_34  and  C1_41 
REMARK   15  A    between atoms: C5_35  and  C6_37 
REMARK   16  A    between atoms: S1_43  and  N2_45 
REMARK   17  A    between atoms: C2_44  and  N2_45 
REMARK   18  A    between atoms: S2_48  and  O6_60 
REMARK   19  A    between atoms: C3_49  and  O3_50 
REMARK   20  A    between atoms: C4_53  and  O4_54 
REMARK   21  A    between atoms: O4_54  and  C1_62 
REMARK   22  A    between atoms: C5_56  and  C6_59 
REMARK   23  A    between atoms: C6_59  and  O6_60 
REMARK   24  A    between atoms: C2_64  and  O2_65 
REMARK   25  A    between atoms: O2_65  and  S_77 
REMARK   26  A    between atoms: C3_67  and  O3_68 
REMARK   27  A    between atoms: C5_72  and  C6_74 
ROOT
HETATM    1  C1  IDS C   2      21.854  84.099  10.868  1.00 40.81     0.294 C 
HETATM    2  C2  IDS C   2      21.003  84.837  11.905  1.00 40.20     0.231 C 
HETATM    3  C3  IDS C   2      21.413  86.304  12.007  1.00 39.01     0.185 C 
HETATM    4  C4  IDS C   2      22.891  86.437  12.426  1.00 37.65     0.195 C 
HETATM    5  C5  IDS C   2      23.640  85.135  12.116  1.00 35.99     0.257 C 
HETATM    6  O5  IDS C   2      23.203  84.614  10.838  1.00 39.00    -0.340 OA
ENDROOT
BRANCH   4   7
HETATM    7  O4  IDS C   2      23.504  87.544  11.719  1.00 35.98    -0.348 OA
BRANCH   7   8
HETATM    8  C1  SGN C   3      23.229  88.824  12.219  1.00 35.40     0.287 C 
HETATM    9  C2  SGN C   3      23.030  89.815  11.058  1.00 33.71     0.182 C 
HETATM   10  C3  SGN C   3      24.349  90.165  10.360  1.00 35.79     0.178 C 
HETATM   11  C4  SGN C   3      25.462  90.501  11.367  1.00 36.62     0.186 C 
HETATM   12  C5  SGN C   3      25.529  89.431  12.450  1.00 39.32     0.181 C 
HETATM   13  O5  SGN C   3      24.246  89.291  13.087  1.00 37.58    -0.349 OA
BRANCH   9  14
HETATM   14  N2  SGN C   3      22.125  89.244  10.085  1.00 29.28    -0.289 N 
ATOM     15  H2  SGN C   3      22.434  88.515   9.442  1.00  0.00     0.175 HD
BRANCH  14  16
HETATM   16  S1  SGN C   3      20.576  89.814  10.053  1.00 27.84     0.205 S 
HETATM   17  O1S SGN C   3      20.139  89.607   8.685  1.00 27.65    -0.578 OA
HETATM   18  O2S SGN C   3      20.682  91.259  10.412  1.00 27.72    -0.578 OA
HETATM   19  O3S SGN C   3      19.745  89.051  11.038  1.00 28.50    -0.578 OA
ENDBRANCH  14  16
ENDBRANCH   9  14
BRANCH  10  20
HETATM   20  O3  SGN C   3      24.142  91.264   9.476  1.00 34.89    -0.391 OA
ATOM     21  H3  SGN C   3      23.687  91.960   9.936  1.00  0.00     0.210 HD
ENDBRANCH  10  20
BRANCH  11  22
HETATM   22  O4  SGN C   3      26.726  90.538  10.681  1.00 37.13    -0.348 OA
BRANCH  22  23
HETATM   23  C1  UAP C   4      27.501  91.660  10.925  1.00 39.64     0.294 C 
HETATM   24  C2  UAP C   4      26.760  92.619  11.839  1.00 38.70     0.228 C 
HETATM   25  C3  UAP C   4      27.573  93.897  12.028  1.00 38.51     0.156 C 
HETATM   26  C4  UAP C   4      29.138  93.644  12.231  1.00 38.14     0.077 C 
HETATM   27  C5  UAP C   4      29.557  92.328  11.985  1.00 38.51     0.228 C 
HETATM   28  O5  UAP C   4      28.694  91.232  11.570  1.00 37.46    -0.343 OA
BRANCH  24  29
HETATM   29  O2  UAP C   4      25.482  93.001  11.236  1.00 40.54    -0.244 OA
BRANCH  29  30
HETATM   30  S   UAP C   4      24.327  93.680  12.112  1.00 40.49     0.252 S 
HETATM   31  O1S UAP C   4      24.482  95.136  11.971  1.00 40.89    -0.572 OA
HETATM   32  O2S UAP C   4      24.535  93.244  13.500  1.00 37.88    -0.572 OA
HETATM   33  O3S UAP C   4      23.041  93.210  11.572  1.00 37.47    -0.572 OA
ENDBRANCH  29  30
ENDBRANCH  24  29
BRANCH  25  34
HETATM   34  O3  UAP C   4      27.063  94.607  13.145  1.00 38.58    -0.393 OA
ATOM     35  H3  UAP C   4      27.791  94.936  13.660  1.00  0.00     0.210 HD
ENDBRANCH  25  34
BRANCH  27  36
HETATM   36  C6  UAP C   4      30.970  91.892  12.160  1.00 37.96     0.203 C 
HETATM   37  O6A UAP C   4      31.556  91.386  11.183  1.00 40.05    -0.646 OA
HETATM   38  O6B UAP C   4      31.503  92.050  13.279  1.00 36.71    -0.646 OA
ENDBRANCH  27  36
ENDBRANCH  22  23
ENDBRANCH  11  22
BRANCH  12  39
HETATM   39  C6  SGN C   3      26.532  89.711  13.534  1.00 42.65     0.227 C 
BRANCH  39  40
HETATM   40  O6  SGN C   3      27.297  88.496  13.681  1.00 51.09    -0.254 OA
BRANCH  40  41
HETATM   41  S2  SGN C   3      28.375  88.476  14.858  1.00 54.80     0.251 S 
HETATM   42  O4S SGN C   3      29.425  87.512  14.479  1.00 54.99    -0.572 OA
HETATM   43  O5S SGN C   3      27.650  88.049  16.092  1.00 53.99    -0.572 OA
HETATM   44  O6S SGN C   3      28.900  89.830  14.973  1.00 55.43    -0.572 OA
ENDBRANCH  40  41
ENDBRANCH  39  40
ENDBRANCH  12  39
ENDBRANCH   7   8
ENDBRANCH   4   7
BRANCH   3  45
HETATM   45  O3  IDS C   2      20.582  86.964  12.952  1.00 39.65    -0.390 OA
ATOM     46  H3  IDS C   2      19.748  87.174  12.548  1.00  0.00     0.210 HD
ENDBRANCH   3  45
BRANCH   5  47
HETATM   47  C6  IDS C   2      25.157  85.260  12.075  1.00 36.10     0.206 C 
HETATM   48  O6A IDS C   2      25.726  85.744  13.079  1.00 32.44    -0.646 OA
HETATM   49  O6B IDS C   2      25.760  84.861  11.050  1.00 33.44    -0.646 OA
ENDBRANCH   5  47
BRANCH   2  50
HETATM   50  O2  IDS C   2      19.600  84.781  11.518  1.00 43.59    -0.244 OA
BRANCH  50  51
HETATM   51  S   IDS C   2      18.521  84.203  12.543  1.00 44.11     0.252 S 
HETATM   52  O1S IDS C   2      19.217  83.148  13.356  1.00 44.48    -0.572 OA
HETATM   53  O2S IDS C   2      17.413  83.647  11.738  1.00 44.29    -0.572 OA
HETATM   54  O3S IDS C   2      18.083  85.316  13.365  1.00 44.74    -0.572 OA
ENDBRANCH  50  51
ENDBRANCH   2  50
BRANCH   1  55
HETATM   55  O4  SGN C   1      21.903  82.749  11.186  1.00 44.73    -0.348 OA
BRANCH  55  56
HETATM   56  C4  SGN C   1      22.113  81.814  10.106  1.00 48.25     0.186 C 
HETATM   57  C3  SGN C   1      23.471  81.121  10.276  1.00 48.43     0.178 C 
HETATM   58  C2  SGN C   1      23.633  80.021   9.228  1.00 48.58     0.181 C 
HETATM   59  C1  SGN C   1      22.451  79.053   9.242  1.00 50.40     0.283 C 
HETATM   60  O5  SGN C   1      21.223  79.773   9.076  1.00 50.82    -0.349 OA
HETATM   61  C5  SGN C   1      20.998  80.754  10.115  1.00 51.58     0.181 C 
BRANCH  57  62
HETATM   62  O3  SGN C   1      24.518  82.067  10.129  1.00 46.09    -0.391 OA
ATOM     63  H3  SGN C   1      25.287  81.631   9.779  1.00  0.00     0.210 HD
ENDBRANCH  57  62
BRANCH  58  64
HETATM   64  N2  SGN C   1      24.863  79.289   9.450  1.00 48.56    -0.289 N 
ATOM     65  H2  SGN C   1      25.040  78.753  10.299  1.00  0.00     0.175 HD
BRANCH  64  66
HETATM   66  S1  SGN C   1      25.958  79.393   8.213  1.00 47.67     0.205 S 
HETATM   67  O1S SGN C   1      25.773  80.723   7.593  1.00 47.59    -0.578 OA
HETATM   68  O2S SGN C   1      25.620  78.296   7.300  1.00 48.55    -0.578 OA
HETATM   69  O3S SGN C   1      27.298  79.234   8.820  1.00 47.08    -0.578 OA
ENDBRANCH  64  66
ENDBRANCH  58  64
BRANCH  59  70
HETATM   70  O1  SGN C   1      22.409  78.377  10.452  1.00 51.36    -0.369 OA
ATOM     71  H1  SGN C   1      22.152  78.972  11.146  1.00  0.00     0.212 HD
ENDBRANCH  59  70
BRANCH  61  72
HETATM   72  C6  SGN C   1      19.633  81.344   9.863  1.00 55.48     0.227 C 
BRANCH  72  73
HETATM   73  O6  SGN C   1      19.393  81.416   8.441  1.00 61.59    -0.254 OA
BRANCH  73  74
HETATM   74  S2  SGN C   1      18.051  80.715   7.945  1.00 65.98     0.251 S 
HETATM   75  O4S SGN C   1      18.452  79.637   6.935  1.00 65.09    -0.572 OA
HETATM   76  O5S SGN C   1      17.243  81.754   7.333  1.00 65.58    -0.572 OA
HETATM   77  O6S SGN C   1      17.358  80.105   9.203  1.00 65.84    -0.572 OA
ENDBRANCH  73  74
ENDBRANCH  72  73
ENDBRANCH  61  72
ENDBRANCH  55  56
ENDBRANCH   1  55
TORSDOF 27
ENDMDL
MODEL 64
REMARK VINA RESULT:      -5.3      5.820     10.618
REMARK  27 active torsions:
REMARK  status: ('A' for Active; 'I' for Inactive)
REMARK    1  A    between atoms: C1_1  and  O1_2 
REMARK    2  A    between atoms: S1_5  and  N2_7 
REMARK    3  A    between atoms: C2_6  and  N2_7 
REMARK    4  A    between atoms: S2_10  and  O6_22 
REMARK    5  A    between atoms: C3_11  and  O3_12 
REMARK    6  A    between atoms: C4_15  and  O4_16 
REMARK    7  A    between atoms: O4_16  and  C1_24 
REMARK    8  A    between atoms: C5_18  and  C6_21 
REMARK    9  A    between atoms: C6_21  and  O6_22 
REMARK   10  A    between atoms: C2_26  and  O2_27 
REMARK   11  A    between atoms: O2_27  and  S_40 
REMARK   12  A    between atoms: C3_29  and  O3_30 
REMARK   13  A    between atoms: C4_33  and  O4_34 
REMARK   14  A    between atoms: O4_34  and  C1_41 
REMARK   15  A    between atoms: C5_35  and  C6_37 
REMARK   16  A    between atoms: S1_43  and  N2_45 
REMARK   17  A    between atoms: C2_44  and  N2_45 
REMARK   18  A    between atoms: S2_48  and  O6_60 
REMARK   19  A    between atoms: C3_49  and  O3_50 
REMARK   20  A    between atoms: C4_53  and  O4_54 
REMARK   21  A    between atoms: O4_54  and  C1_62 
REMARK   22  A    between atoms: C5_56  and  C6_59 
REMARK   23  A    between atoms: C6_59  and  O6_60 
REMARK   24  A    between atoms: C2_64  and  O2_65 
REMARK   25  A    between atoms: O2_65  and  S_77 
REMARK   26  A    between atoms: C3_67  and  O3_68 
REMARK   27  A    between atoms: C5_72  and  C6_74 
ROOT
HETATM    1  C1  IDS C   2      31.129  72.620  15.161  1.00 40.81     0.294 C 
HETATM    2  C2  IDS C   2      30.813  73.454  13.916  1.00 40.20     0.231 C 
HETATM    3  C3  IDS C   2      30.516  72.559  12.717  1.00 39.01     0.185 C 
HETATM    4  C4  IDS C   2      31.723  71.658  12.388  1.00 37.65     0.195 C 
HETATM    5  C5  IDS C   2      32.632  71.534  13.618  1.00 35.99     0.257 C 
HETATM    6  O5  IDS C   2      31.822  71.403  14.810  1.00 39.00    -0.340 OA
ENDROOT
BRANCH   4   7
HETATM    7  O4  IDS C   2      31.261  70.346  11.979  1.00 35.98    -0.348 OA
BRANCH   7   8
HETATM    8  C1  SGN C   3      30.284  70.323  10.973  1.00 35.40     0.287 C 
HETATM    9  C2  SGN C   3      30.169  68.908  10.380  1.00 33.71     0.182 C 
HETATM   10  C3  SGN C   3      31.365  68.549   9.490  1.00 35.79     0.178 C 
HETATM   11  C4  SGN C   3      31.709  69.681   8.506  1.00 36.62     0.186 C 
HETATM   12  C5  SGN C   3      31.784  71.011   9.244  1.00 39.32     0.181 C 
HETATM   13  O5  SGN C   3      30.552  71.259   9.944  1.00 37.58    -0.349 OA
BRANCH   9  14
HETATM   14  N2  SGN C   3      30.080  67.941  11.451  1.00 29.28    -0.289 N 
ATOM     15  H2  SGN C   3      30.492  68.127  12.366  1.00  0.00     0.175 HD
BRANCH  14  16
HETATM   16  S1  SGN C   3      29.288  66.525  11.142  1.00 27.84     0.205 S 
HETATM   17  O1S SGN C   3      28.658  66.177  12.402  1.00 27.65    -0.578 OA
HETATM   18  O2S SGN C   3      30.354  65.558  10.744  1.00 27.72    -0.578 OA
HETATM   19  O3S SGN C   3      28.290  66.741  10.047  1.00 28.50    -0.578 OA
ENDBRANCH  14  16
ENDBRANCH   9  14
BRANCH  10  20
HETATM   20  O3  SGN C   3      31.083  67.348   8.776  1.00 34.89    -0.391 OA
ATOM     21  H3  SGN C   3      30.365  66.890   9.197  1.00  0.00     0.210 HD
ENDBRANCH  10  20
BRANCH  11  22
HETATM   22  O4  SGN C   3      32.991  69.415   7.910  1.00 37.13    -0.348 OA
BRANCH  22  23
HETATM   23  C1  UAP C   4      34.010  69.118   8.801  1.00 39.64     0.294 C 
HETATM   24  C2  UAP C   4      34.759  67.879   8.345  1.00 38.70     0.228 C 
HETATM   25  C3  UAP C   4      35.816  67.497   9.376  1.00 38.51     0.156 C 
HETATM   26  C4  UAP C   4      36.619  68.744   9.973  1.00 38.14     0.077 C 
HETATM   27  C5  UAP C   4      36.089  69.998   9.636  1.00 38.51     0.228 C 
HETATM   28  O5  UAP C   4      34.905  70.222   8.818  1.00 37.46    -0.343 OA
BRANCH  24  29
HETATM   29  O2  UAP C   4      33.836  66.748   8.228  1.00 40.54    -0.244 OA
BRANCH  29  30
HETATM   30  S   UAP C   4      33.731  65.905   6.872  1.00 40.49     0.252 S 
HETATM   31  O1S UAP C   4      34.852  64.953   6.872  1.00 40.89    -0.572 OA
HETATM   32  O2S UAP C   4      33.837  66.867   5.765  1.00 37.88    -0.572 OA
HETATM   33  O3S UAP C   4      32.428  65.221   6.887  1.00 37.47    -0.572 OA
ENDBRANCH  29  30
ENDBRANCH  24  29
BRANCH  25  34
HETATM   34  O3  UAP C   4      36.733  66.590   8.784  1.00 38.58    -0.393 OA
ATOM     35  H3  UAP C   4      36.626  65.736   9.186  1.00  0.00     0.210 HD
ENDBRANCH  25  34
BRANCH  27  36
HETATM   36  C6  UAP C   4      36.722  71.276  10.065  1.00 37.96     0.203 C 
HETATM   37  O6A UAP C   4      37.726  71.217  10.802  1.00 40.05    -0.646 OA
HETATM   38  O6B UAP C   4      36.217  72.348   9.670  1.00 36.71    -0.646 OA
ENDBRANCH  27  36
ENDBRANCH  22  23
ENDBRANCH  11  22
BRANCH  12  39
HETATM   39  C6  SGN C   3      32.033  72.197   8.354  1.00 42.65     0.227 C 
BRANCH  39  40
HETATM   40  O6  SGN C   3      32.967  73.034   9.071  1.00 51.09    -0.254 OA
BRANCH  40  41
HETATM   41  S2  SGN C   3      32.467  74.508   9.427  1.00 54.80     0.251 S 
HETATM   42  O4S SGN C   3      32.755  74.739  10.854  1.00 54.99    -0.572 OA
HETATM   43  O5S SGN C   3      31.001  74.541   9.144  1.00 53.99    -0.572 OA
HETATM   44  O6S SGN C   3      33.210  75.424   8.571  1.00 55.43    -0.572 OA
ENDBRANCH  40  41
ENDBRANCH  39  40
ENDBRANCH  12  39
ENDBRANCH   7   8
ENDBRANCH   4   7
BRANCH   3  45
HETATM   45  O3  IDS C   2      30.195  73.365  11.591  1.00 39.65    -0.390 OA
ATOM     46  H3  IDS C   2      30.931  73.927  11.384  1.00  0.00     0.210 HD
ENDBRANCH   3  45
BRANCH   5  47
HETATM   47  C6  IDS C   2      33.606  70.364  13.583  1.00 36.10     0.206 C 
HETATM   48  O6A IDS C   2      33.489  69.487  14.466  1.00 32.44    -0.646 OA
HETATM   49  O6B IDS C   2      34.462  70.329  12.667  1.00 33.44    -0.646 OA
ENDBRANCH   5  47
BRANCH   2  50
HETATM   50  O2  IDS C   2      29.641  74.285  14.166  1.00 43.59    -0.244 OA
BRANCH  50  51
HETATM   51  S   IDS C   2      29.728  75.861  13.934  1.00 44.11     0.252 S 
HETATM   52  O1S IDS C   2      30.716  76.393  14.934  1.00 44.48    -0.572 OA
HETATM   53  O2S IDS C   2      28.371  76.407  14.147  1.00 44.29    -0.572 OA
HETATM   54  O3S IDS C   2      30.181  76.062  12.569  1.00 44.74    -0.572 OA
ENDBRANCH  50  51
ENDBRANCH   2  50
BRANCH   1  55
HETATM   55  O4  SGN C   1      31.933  73.356  16.019  1.00 44.73    -0.348 OA
BRANCH  55  56
HETATM   56  C4  SGN C   1      31.916  73.005  17.420  1.00 48.25     0.186 C 
HETATM   57  C3  SGN C   1      33.187  72.224  17.774  1.00 48.43     0.178 C 
HETATM   58  C2  SGN C   1      33.252  71.983  19.282  1.00 48.58     0.181 C 
HETATM   59  C1  SGN C   1      33.100  73.286  20.066  1.00 50.40     0.283 C 
HETATM   60  O5  SGN C   1      31.892  73.954  19.682  1.00 50.82    -0.349 OA
HETATM   61  C5  SGN C   1      31.851  74.282  18.273  1.00 51.58     0.181 C 
BRANCH  57  62
HETATM   62  O3  SGN C   1      33.192  70.975  17.100  1.00 46.09    -0.391 OA
ATOM     63  H3  SGN C   1      33.572  70.314  17.667  1.00  0.00     0.210 HD
ENDBRANCH  57  62
BRANCH  58  64
HETATM   64  N2  SGN C   1      34.501  71.343  19.639  1.00 48.56    -0.289 N 
ATOM     65  H2  SGN C   1      35.403  71.657  19.280  1.00  0.00     0.175 HD
BRANCH  64  66
HETATM   66  S1  SGN C   1      34.347  70.064  20.676  1.00 47.67     0.205 S 
HETATM   67  O1S SGN C   1      35.208  68.983  20.149  1.00 47.59    -0.578 OA
HETATM   68  O2S SGN C   1      32.924  69.709  20.650  1.00 48.55    -0.578 OA
HETATM   69  O3S SGN C   1      34.789  70.540  22.005  1.00 47.08    -0.578 OA
ENDBRANCH  64  66
ENDBRANCH  58  64
BRANCH  59  70
HETATM   70  O1  SGN C   1      34.174  74.123  19.801  1.00 51.36    -0.369 OA
ATOM     71  H1  SGN C   1      34.573  74.404  20.616  1.00  0.00     0.212 HD
ENDBRANCH  59  70
BRANCH  61  72
HETATM   72  C6  SGN C   1      30.582  75.067  18.050  1.00 55.48     0.227 C 
BRANCH  72  73
HETATM   73  O6  SGN C   1      30.630  76.290  18.816  1.00 61.59    -0.254 OA
BRANCH  73  74
HETATM   74  S2  SGN C   1      29.498  76.437  19.928  1.00 65.98     0.251 S 
HETATM   75  O4S SGN C   1      28.762  75.097  20.002  1.00 65.09    -0.572 OA
HETATM   76  O5S SGN C   1      28.624  77.510  19.489  1.00 65.58    -0.572 OA
HETATM   77  O6S SGN C   1      30.213  76.784  21.271  1.00 65.84    -0.572 OA
ENDBRANCH  73  74
ENDBRANCH  72  73
ENDBRANCH  61  72
ENDBRANCH  55  56
ENDBRANCH   1  55
TORSDOF 27
ENDMDL
MODEL 65
REMARK VINA RESULT:      -5.3      4.412      9.152
REMARK  27 active torsions:
REMARK  status: ('A' for Active; 'I' for Inactive)
REMARK    1  A    between atoms: C1_1  and  O1_2 
REMARK    2  A    between atoms: S1_5  and  N2_7 
REMARK    3  A    between atoms: C2_6  and  N2_7 
REMARK    4  A    between atoms: S2_10  and  O6_22 
REMARK    5  A    between atoms: C3_11  and  O3_12 
REMARK    6  A    between atoms: C4_15  and  O4_16 
REMARK    7  A    between atoms: O4_16  and  C1_24 
REMARK    8  A    between atoms: C5_18  and  C6_21 
REMARK    9  A    between atoms: C6_21  and  O6_22 
REMARK   10  A    between atoms: C2_26  and  O2_27 
REMARK   11  A    between atoms: O2_27  and  S_40 
REMARK   12  A    between atoms: C3_29  and  O3_30 
REMARK   13  A    between atoms: C4_33  and  O4_34 
REMARK   14  A    between atoms: O4_34  and  C1_41 
REMARK   15  A    between atoms: C5_35  and  C6_37 
REMARK   16  A    between atoms: S1_43  and  N2_45 
REMARK   17  A    between atoms: C2_44  and  N2_45 
REMARK   18  A    between atoms: S2_48  and  O6_60 
REMARK   19  A    between atoms: C3_49  and  O3_50 
REMARK   20  A    between atoms: C4_53  and  O4_54 
REMARK   21  A    between atoms: O4_54  and  C1_62 
REMARK   22  A    between atoms: C5_56  and  C6_59 
REMARK   23  A    between atoms: C6_59  and  O6_60 
REMARK   24  A    between atoms: C2_64  and  O2_65 
REMARK   25  A    between atoms: O2_65  and  S_77 
REMARK   26  A    between atoms: C3_67  and  O3_68 
REMARK   27  A    between atoms: C5_72  and  C6_74 
ROOT
HETATM    1  C1  IDS C   2      31.436  73.182  13.162  1.00 40.81     0.294 C 
HETATM    2  C2  IDS C   2      30.714  74.302  13.915  1.00 40.20     0.231 C 
HETATM    3  C3  IDS C   2      31.662  75.020  14.872  1.00 39.01     0.185 C 
HETATM    4  C4  IDS C   2      32.237  74.042  15.916  1.00 37.65     0.195 C 
HETATM    5  C5  IDS C   2      32.124  72.602  15.400  1.00 35.99     0.257 C 
HETATM    6  O5  IDS C   2      32.446  72.564  13.989  1.00 39.00    -0.340 OA
ENDROOT
BRANCH   4   7
HETATM    7  O4  IDS C   2      33.625  74.367  16.181  1.00 35.98    -0.348 OA
BRANCH   7   8
HETATM    8  C1  SGN C   3      33.879  75.674  16.622  1.00 35.40     0.287 C 
HETATM    9  C2  SGN C   3      35.392  75.888  16.800  1.00 33.71     0.182 C 
HETATM   10  C3  SGN C   3      35.942  75.162  18.034  1.00 35.79     0.178 C 
HETATM   11  C4  SGN C   3      35.065  75.394  19.276  1.00 36.62     0.186 C 
HETATM   12  C5  SGN C   3      33.600  75.145  18.936  1.00 39.32     0.181 C 
HETATM   13  O5  SGN C   3      33.201  75.973  17.830  1.00 37.58    -0.349 OA
BRANCH   9  14
HETATM   14  N2  SGN C   3      36.089  75.406  15.628  1.00 29.28    -0.289 N 
ATOM     15  H2  SGN C   3      36.038  74.427  15.349  1.00  0.00     0.175 HD
BRANCH  14  16
HETATM   16  S1  SGN C   3      36.971  76.499  14.759  1.00 27.84     0.205 S 
HETATM   17  O1S SGN C   3      37.866  77.101  15.730  1.00 27.65    -0.578 OA
HETATM   18  O2S SGN C   3      35.972  77.467  14.217  1.00 27.72    -0.578 OA
HETATM   19  O3S SGN C   3      37.710  75.787  13.668  1.00 28.50    -0.578 OA
ENDBRANCH  14  16
ENDBRANCH   9  14
BRANCH  10  20
HETATM   20  O3  SGN C   3      37.275  75.599  18.288  1.00 34.89    -0.391 OA
ATOM     21  H3  SGN C   3      37.831  74.845  18.445  1.00  0.00     0.210 HD
ENDBRANCH  10  20
BRANCH  11  22
HETATM   22  O4  SGN C   3      35.457  74.474  20.311  1.00 37.13    -0.348 OA
BRANCH  22  23
HETATM   23  C1  UAP C   4      35.487  73.140  19.938  1.00 39.64     0.294 C 
HETATM   24  C2  UAP C   4      36.837  72.533  20.276  1.00 38.70     0.228 C 
HETATM   25  C3  UAP C   4      36.903  71.092  19.778  1.00 38.51     0.156 C 
HETATM   26  C4  UAP C   4      35.563  70.258  20.031  1.00 38.14     0.077 C 
HETATM   27  C5  UAP C   4      34.468  71.022  20.459  1.00 38.51     0.228 C 
HETATM   28  O5  UAP C   4      34.476  72.462  20.673  1.00 37.46    -0.343 OA
BRANCH  24  29
HETATM   29  O2  UAP C   4      37.905  73.276  19.604  1.00 40.54    -0.244 OA
BRANCH  29  30
HETATM   30  S   UAP C   4      39.356  73.415  20.265  1.00 40.49     0.252 S 
HETATM   31  O1S UAP C   4      39.804  74.795  20.026  1.00 40.89    -0.572 OA
HETATM   32  O2S UAP C   4      40.224  72.438  19.594  1.00 37.88    -0.572 OA
HETATM   33  O3S UAP C   4      39.206  73.127  21.700  1.00 37.47    -0.572 OA
ENDBRANCH  29  30
ENDBRANCH  24  29
BRANCH  25  34
HETATM   34  O3  UAP C   4      37.991  70.435  20.409  1.00 38.58    -0.393 OA
ATOM     35  H3  UAP C   4      37.679  69.627  20.800  1.00  0.00     0.210 HD
ENDBRANCH  25  34
BRANCH  27  36
HETATM   36  C6  UAP C   4      33.147  70.416  20.784  1.00 37.96     0.203 C 
HETATM   37  O6A UAP C   4      32.421  70.996  21.615  1.00 40.05    -0.646 OA
HETATM   38  O6B UAP C   4      32.828  69.352  20.211  1.00 36.71    -0.646 OA
ENDBRANCH  27  36
ENDBRANCH  22  23
ENDBRANCH  11  22
BRANCH  12  39
HETATM   39  C6  SGN C   3      32.648  75.427  20.065  1.00 42.65     0.227 C 
BRANCH  39  40
HETATM   40  O6  SGN C   3      31.700  76.384  19.547  1.00 51.09    -0.254 OA
BRANCH  40  41
HETATM   41  S2  SGN C   3      30.179  75.906  19.474  1.00 54.80     0.251 S 
HETATM   42  O4S SGN C   3      29.336  77.063  19.827  1.00 54.99    -0.572 OA
HETATM   43  O5S SGN C   3      30.034  74.793  20.459  1.00 53.99    -0.572 OA
HETATM   44  O6S SGN C   3      29.941  75.461  18.107  1.00 55.43    -0.572 OA
ENDBRANCH  40  41
ENDBRANCH  39  40
ENDBRANCH  12  39
ENDBRANCH   7   8
ENDBRANCH   4   7
BRANCH   3  45
HETATM   45  O3  IDS C   2      30.967  76.072  15.527  1.00 39.65    -0.390 OA
ATOM     46  H3  IDS C   2      30.700  76.721  14.888  1.00  0.00     0.210 HD
ENDBRANCH   3  45
BRANCH   5  47
HETATM   47  C6  IDS C   2      33.016  71.593  16.110  1.00 36.10     0.206 C 
HETATM   48  O6A IDS C   2      33.972  71.108  15.464  1.00 32.44    -0.646 OA
HETATM   49  O6B IDS C   2      32.762  71.309  17.305  1.00 33.44    -0.646 OA
ENDBRANCH   5  47
BRANCH   2  50
HETATM   50  O2  IDS C   2      30.198  75.280  12.965  1.00 43.59    -0.244 OA
BRANCH  50  51
HETATM   51  S   IDS C   2      31.208  76.273  12.230  1.00 44.11     0.252 S 
HETATM   52  O1S IDS C   2      31.350  77.481  13.113  1.00 44.48    -0.572 OA
HETATM   53  O2S IDS C   2      30.610  76.609  10.920  1.00 44.29    -0.572 OA
HETATM   54  O3S IDS C   2      32.465  75.562  12.081  1.00 44.74    -0.572 OA
ENDBRANCH  50  51
ENDBRANCH   2  50
BRANCH   1  55
HETATM   55  O4  SGN C   1      30.519  72.212  12.784  1.00 44.73    -0.348 OA
BRANCH  55  56
HETATM   56  C4  SGN C   1      30.890  71.320  11.710  1.00 48.25     0.186 C 
HETATM   57  C3  SGN C   1      30.860  69.870  12.207  1.00 48.43     0.178 C 
HETATM   58  C2  SGN C   1      31.100  68.911  11.041  1.00 48.58     0.181 C 
HETATM   59  C1  SGN C   1      30.135  69.179   9.887  1.00 50.40     0.283 C 
HETATM   60  O5  SGN C   1      30.223  70.549   9.479  1.00 50.82    -0.349 OA
HETATM   61  C5  SGN C   1      29.903  71.477  10.542  1.00 51.58     0.181 C 
BRANCH  57  62
HETATM   62  O3  SGN C   1      31.865  69.673  13.189  1.00 46.09    -0.391 OA
ATOM     63  H3  SGN C   1      31.609  70.112  13.992  1.00  0.00     0.210 HD
ENDBRANCH  57  62
BRANCH  58  64
HETATM   64  N2  SGN C   1      30.964  67.537  11.480  1.00 48.56    -0.289 N 
ATOM     65  H2  SGN C   1      30.094  67.164  11.861  1.00  0.00     0.175 HD
BRANCH  64  66
HETATM   66  S1  SGN C   1      32.333  66.624  11.313  1.00 47.67     0.205 S 
HETATM   67  O1S SGN C   1      32.716  66.689   9.886  1.00 47.59    -0.578 OA
HETATM   68  O2S SGN C   1      31.951  65.270  11.730  1.00 48.55    -0.578 OA
HETATM   69  O3S SGN C   1      33.353  67.224  12.200  1.00 47.08    -0.578 OA
ENDBRANCH  64  66
ENDBRANCH  58  64
BRANCH  59  70
HETATM   70  O1  SGN C   1      28.834  68.918  10.289  1.00 51.36    -0.369 OA
ATOM     71  H1  SGN C   1      28.400  68.371   9.645  1.00  0.00     0.212 HD
ENDBRANCH  59  70
BRANCH  61  72
HETATM   72  C6  SGN C   1      29.935  72.857   9.934  1.00 55.48     0.227 C 
BRANCH  72  73
HETATM   73  O6  SGN C   1      29.024  72.914   8.816  1.00 61.59    -0.254 OA
BRANCH  73  74
HETATM   74  S2  SGN C   1      29.572  73.687   7.534  1.00 65.98     0.251 S 
HETATM   75  O4S SGN C   1      30.920  73.060   7.172  1.00 65.09    -0.572 OA
HETATM   76  O5S SGN C   1      29.709  75.080   7.919  1.00 65.58    -0.572 OA
HETATM   77  O6S SGN C   1      28.518  73.499   6.398  1.00 65.84    -0.572 OA
ENDBRANCH  73  74
ENDBRANCH  72  73
ENDBRANCH  61  72
ENDBRANCH  55  56
ENDBRANCH   1  55
TORSDOF 27
ENDMDL
MODEL 66
REMARK VINA RESULT:      -5.3     11.591     17.206
REMARK  27 active torsions:
REMARK  status: ('A' for Active; 'I' for Inactive)
REMARK    1  A    between atoms: C1_1  and  O1_2 
REMARK    2  A    between atoms: S1_5  and  N2_7 
REMARK    3  A    between atoms: C2_6  and  N2_7 
REMARK    4  A    between atoms: S2_10  and  O6_22 
REMARK    5  A    between atoms: C3_11  and  O3_12 
REMARK    6  A    between atoms: C4_15  and  O4_16 
REMARK    7  A    between atoms: O4_16  and  C1_24 
REMARK    8  A    between atoms: C5_18  and  C6_21 
REMARK    9  A    between atoms: C6_21  and  O6_22 
REMARK   10  A    between atoms: C2_26  and  O2_27 
REMARK   11  A    between atoms: O2_27  and  S_40 
REMARK   12  A    between atoms: C3_29  and  O3_30 
REMARK   13  A    between atoms: C4_33  and  O4_34 
REMARK   14  A    between atoms: O4_34  and  C1_41 
REMARK   15  A    between atoms: C5_35  and  C6_37 
REMARK   16  A    between atoms: S1_43  and  N2_45 
REMARK   17  A    between atoms: C2_44  and  N2_45 
REMARK   18  A    between atoms: S2_48  and  O6_60 
REMARK   19  A    between atoms: C3_49  and  O3_50 
REMARK   20  A    between atoms: C4_53  and  O4_54 
REMARK   21  A    between atoms: O4_54  and  C1_62 
REMARK   22  A    between atoms: C5_56  and  C6_59 
REMARK   23  A    between atoms: C6_59  and  O6_60 
REMARK   24  A    between atoms: C2_64  and  O2_65 
REMARK   25  A    between atoms: O2_65  and  S_77 
REMARK   26  A    between atoms: C3_67  and  O3_68 
REMARK   27  A    between atoms: C5_72  and  C6_74 
ROOT
HETATM    1  C1  IDS C   2      27.485  87.618  12.780  1.00 40.81     0.294 C 
HETATM    2  C2  IDS C   2      28.441  87.564  13.975  1.00 40.20     0.231 C 
HETATM    3  C3  IDS C   2      29.208  86.245  14.005  1.00 39.01     0.185 C 
HETATM    4  C4  IDS C   2      28.244  85.047  14.117  1.00 37.65     0.195 C 
HETATM    5  C5  IDS C   2      26.843  85.460  13.649  1.00 35.99     0.257 C 
HETATM    6  O5  IDS C   2      26.950  86.310  12.481  1.00 39.00    -0.340 OA
ENDROOT
BRANCH   4   7
HETATM    7  O4  IDS C   2      28.732  83.946  13.310  1.00 35.98    -0.348 OA
BRANCH   7   8
HETATM    8  C1  SGN C   3      29.424  82.938  13.996  1.00 35.40     0.287 C 
HETATM    9  C2  SGN C   3      30.602  82.431  13.146  1.00 33.71     0.182 C 
HETATM   10  C3  SGN C   3      30.140  81.572  11.963  1.00 35.79     0.178 C 
HETATM   11  C4  SGN C   3      29.098  80.523  12.388  1.00 36.62     0.186 C 
HETATM   12  C5  SGN C   3      28.004  81.179  13.221  1.00 39.32     0.181 C 
HETATM   13  O5  SGN C   3      28.582  81.856  14.351  1.00 37.58    -0.349 OA
BRANCH   9  14
HETATM   14  N2  SGN C   3      31.351  83.559  12.637  1.00 29.28    -0.289 N 
ATOM     15  H2  SGN C   3      31.043  84.065  11.806  1.00  0.00     0.175 HD
BRANCH  14  16
HETATM   16  S1  SGN C   3      32.721  83.999  13.448  1.00 27.84     0.205 S 
HETATM   17  O1S SGN C   3      32.359  83.908  14.850  1.00 27.65    -0.578 OA
HETATM   18  O2S SGN C   3      33.000  85.400  13.014  1.00 27.72    -0.578 OA
HETATM   19  O3S SGN C   3      33.835  83.067  13.085  1.00 28.50    -0.578 OA
ENDBRANCH  14  16
ENDBRANCH   9  14
BRANCH  10  20
HETATM   20  O3  SGN C   3      31.267  80.930  11.373  1.00 34.89    -0.391 OA
ATOM     21  H3  SGN C   3      31.868  81.587  11.042  1.00  0.00     0.210 HD
ENDBRANCH  10  20
BRANCH  11  22
HETATM   22  O4  SGN C   3      28.497  79.951  11.213  1.00 37.13    -0.348 OA
BRANCH  22  23
HETATM   23  C1  UAP C   4      28.077  80.863  10.257  1.00 39.64     0.294 C 
HETATM   24  C2  UAP C   4      26.574  81.057  10.346  1.00 38.70     0.228 C 
HETATM   25  C3  UAP C   4      26.100  81.986   9.232  1.00 38.51     0.156 C 
HETATM   26  C4  UAP C   4      27.058  83.242   8.984  1.00 38.14     0.077 C 
HETATM   27  C5  UAP C   4      28.286  83.185   9.659  1.00 38.51     0.228 C 
HETATM   28  O5  UAP C   4      28.723  82.100  10.526  1.00 37.46    -0.343 OA
BRANCH  24  29
HETATM   29  O2  UAP C   4      25.889  79.776  10.166  1.00 40.54    -0.244 OA
BRANCH  29  30
HETATM   30  S   UAP C   4      24.457  79.506  10.827  1.00 40.49     0.252 S 
HETATM   31  O1S UAP C   4      23.460  79.620   9.753  1.00 40.89    -0.572 OA
HETATM   32  O2S UAP C   4      24.264  80.536  11.858  1.00 37.88    -0.572 OA
HETATM   33  O3S UAP C   4      24.494  78.151  11.401  1.00 37.47    -0.572 OA
ENDBRANCH  29  30
ENDBRANCH  24  29
BRANCH  25  34
HETATM   34  O3  UAP C   4      24.793  82.447   9.539  1.00 38.58    -0.393 OA
ATOM     35  H3  UAP C   4      24.276  81.717   9.859  1.00  0.00     0.210 HD
ENDBRANCH  25  34
BRANCH  27  36
HETATM   36  C6  UAP C   4      29.292  84.280   9.583  1.00 37.96     0.203 C 
HETATM   37  O6A UAP C   4      29.860  84.484   8.491  1.00 40.05    -0.646 OA
HETATM   38  O6B UAP C   4      29.523  84.943  10.616  1.00 36.71    -0.646 OA
ENDBRANCH  27  36
ENDBRANCH  22  23
ENDBRANCH  11  22
BRANCH  12  39
HETATM   39  C6  SGN C   3      26.977  80.221  13.757  1.00 42.65     0.227 C 
BRANCH  39  40
HETATM   40  O6  SGN C   3      27.541  79.687  14.975  1.00 51.09    -0.254 OA
BRANCH  40  41
HETATM   41  S2  SGN C   3      27.337  78.123  15.223  1.00 54.80     0.251 S 
HETATM   42  O4S SGN C   3      27.819  77.826  16.584  1.00 54.99    -0.572 OA
HETATM   43  O5S SGN C   3      28.144  77.418  14.183  1.00 53.99    -0.572 OA
HETATM   44  O6S SGN C   3      25.912  77.855  15.084  1.00 55.43    -0.572 OA
ENDBRANCH  40  41
ENDBRANCH  39  40
ENDBRANCH  12  39
ENDBRANCH   7   8
ENDBRANCH   4   7
BRANCH   3  45
HETATM   45  O3  IDS C   2      30.108  86.245  15.105  1.00 39.65    -0.390 OA
ATOM     46  H3  IDS C   2      30.874  85.728  14.888  1.00  0.00     0.210 HD
ENDBRANCH   3  45
BRANCH   5  47
HETATM   47  C6  IDS C   2      25.914  84.305  13.302  1.00 36.10     0.206 C 
HETATM   48  O6A IDS C   2      25.501  83.590  14.242  1.00 32.44    -0.646 OA
HETATM   49  O6B IDS C   2      25.596  84.136  12.100  1.00 33.44    -0.646 OA
ENDBRANCH   5  47
BRANCH   2  50
HETATM   50  O2  IDS C   2      29.406  88.652  13.881  1.00 43.59    -0.244 OA
BRANCH  50  51
HETATM   51  S   IDS C   2      29.689  89.568  15.156  1.00 44.11     0.252 S 
HETATM   52  O1S IDS C   2      31.181  89.643  15.315  1.00 44.48    -0.572 OA
HETATM   53  O2S IDS C   2      29.037  88.916  16.312  1.00 44.29    -0.572 OA
HETATM   54  O3S IDS C   2      29.110  90.870  14.877  1.00 44.74    -0.572 OA
ENDBRANCH  50  51
ENDBRANCH   2  50
BRANCH   1  55
HETATM   55  O4  SGN C   1      26.430  88.472  13.069  1.00 44.73    -0.348 OA
BRANCH  55  56
HETATM   56  C4  SGN C   1      25.650  88.971  11.961  1.00 48.25     0.186 C 
HETATM   57  C3  SGN C   1      24.163  88.681  12.200  1.00 48.43     0.178 C 
HETATM   58  C2  SGN C   1      23.318  89.341  11.112  1.00 48.58     0.181 C 
HETATM   59  C1  SGN C   1      23.634  90.830  10.982  1.00 50.40     0.283 C 
HETATM   60  O5  SGN C   1      25.036  91.019  10.758  1.00 50.82    -0.349 OA
HETATM   61  C5  SGN C   1      25.855  90.490  11.826  1.00 51.58     0.181 C 
BRANCH  57  62
HETATM   62  O3  SGN C   1      23.935  87.281  12.186  1.00 46.09    -0.391 OA
ATOM     63  H3  SGN C   1      23.083  87.106  11.805  1.00  0.00     0.210 HD
ENDBRANCH  57  62
BRANCH  58  64
HETATM   64  N2  SGN C   1      21.908  89.166  11.391  1.00 48.56    -0.289 N 
ATOM     65  H2  SGN C   1      21.439  89.623  12.173  1.00  0.00     0.175 HD
BRANCH  64  66
HETATM   66  S1  SGN C   1      21.118  88.163  10.338  1.00 47.67     0.205 S 
HETATM   67  O1S SGN C   1      21.218  86.797  10.897  1.00 47.59    -0.578 OA
HETATM   68  O2S SGN C   1      21.828  88.300   9.062  1.00 48.55    -0.578 OA
HETATM   69  O3S SGN C   1      19.721  88.642  10.265  1.00 47.08    -0.578 OA
ENDBRANCH  64  66
ENDBRANCH  58  64
BRANCH  59  70
HETATM   70  O1  SGN C   1      23.277  91.492  12.147  1.00 51.36    -0.369 OA
ATOM     71  H1  SGN C   1      23.619  91.026  12.901  1.00  0.00     0.212 HD
ENDBRANCH  59  70
BRANCH  61  72
HETATM   72  C6  SGN C   1      27.281  90.857  11.499  1.00 55.48     0.227 C 
BRANCH  72  73
HETATM   73  O6  SGN C   1      27.436  92.291  11.560  1.00 61.59    -0.254 OA
BRANCH  73  74
HETATM   74  S2  SGN C   1      28.940  92.805  11.684  1.00 65.98     0.251 S 
HETATM   75  O4S SGN C   1      29.836  91.565  11.753  1.00 65.09    -0.572 OA
HETATM   76  O5S SGN C   1      29.009  93.589  12.903  1.00 65.58    -0.572 OA
HETATM   77  O6S SGN C   1      29.237  93.669  10.419  1.00 65.84    -0.572 OA
ENDBRANCH  73  74
ENDBRANCH  72  73
ENDBRANCH  61  72
ENDBRANCH  55  56
ENDBRANCH   1  55
TORSDOF 27
ENDMDL
MODEL 67
REMARK VINA RESULT:      -5.3     11.577     17.294
REMARK  27 active torsions:
REMARK  status: ('A' for Active; 'I' for Inactive)
REMARK    1  A    between atoms: C1_1  and  O1_2 
REMARK    2  A    between atoms: S1_5  and  N2_7 
REMARK    3  A    between atoms: C2_6  and  N2_7 
REMARK    4  A    between atoms: S2_10  and  O6_22 
REMARK    5  A    between atoms: C3_11  and  O3_12 
REMARK    6  A    between atoms: C4_15  and  O4_16 
REMARK    7  A    between atoms: O4_16  and  C1_24 
REMARK    8  A    between atoms: C5_18  and  C6_21 
REMARK    9  A    between atoms: C6_21  and  O6_22 
REMARK   10  A    between atoms: C2_26  and  O2_27 
REMARK   11  A    between atoms: O2_27  and  S_40 
REMARK   12  A    between atoms: C3_29  and  O3_30 
REMARK   13  A    between atoms: C4_33  and  O4_34 
REMARK   14  A    between atoms: O4_34  and  C1_41 
REMARK   15  A    between atoms: C5_35  and  C6_37 
REMARK   16  A    between atoms: S1_43  and  N2_45 
REMARK   17  A    between atoms: C2_44  and  N2_45 
REMARK   18  A    between atoms: S2_48  and  O6_60 
REMARK   19  A    between atoms: C3_49  and  O3_50 
REMARK   20  A    between atoms: C4_53  and  O4_54 
REMARK   21  A    between atoms: O4_54  and  C1_62 
REMARK   22  A    between atoms: C5_56  and  C6_59 
REMARK   23  A    between atoms: C6_59  and  O6_60 
REMARK   24  A    between atoms: C2_64  and  O2_65 
REMARK   25  A    between atoms: O2_65  and  S_77 
REMARK   26  A    between atoms: C3_67  and  O3_68 
REMARK   27  A    between atoms: C5_72  and  C6_74 
ROOT
HETATM    1  C1  IDS C   2      25.151  80.707  13.403  1.00 40.81     0.294 C 
HETATM    2  C2  IDS C   2      26.292  79.744  13.739  1.00 40.20     0.231 C 
HETATM    3  C3  IDS C   2      27.616  80.490  13.882  1.00 39.01     0.185 C 
HETATM    4  C4  IDS C   2      27.983  81.220  12.574  1.00 37.65     0.195 C 
HETATM    5  C5  IDS C   2      26.725  81.426  11.721  1.00 35.99     0.257 C 
HETATM    6  O5  IDS C   2      25.614  81.795  12.573  1.00 39.00    -0.340 OA
ENDROOT
BRANCH   4   7
HETATM    7  O4  IDS C   2      28.590  82.501  12.880  1.00 35.98    -0.348 OA
BRANCH   7   8
HETATM    8  C1  SGN C   3      29.985  82.567  12.759  1.00 35.40     0.287 C 
HETATM    9  C2  SGN C   3      30.571  83.459  13.868  1.00 33.71     0.182 C 
HETATM   10  C3  SGN C   3      30.290  84.947  13.627  1.00 35.79     0.178 C 
HETATM   11  C4  SGN C   3      30.595  85.362  12.178  1.00 36.62     0.186 C 
HETATM   12  C5  SGN C   3      29.950  84.382  11.206  1.00 39.32     0.181 C 
HETATM   13  O5  SGN C   3      30.391  83.043  11.488  1.00 37.58    -0.349 OA
BRANCH   9  14
HETATM   14  N2  SGN C   3      30.005  83.079  15.143  1.00 29.28    -0.289 N 
ATOM     15  H2  SGN C   3      29.036  83.293  15.375  1.00  0.00     0.175 HD
BRANCH  14  16
HETATM   16  S1  SGN C   3      30.985  82.286  16.210  1.00 27.84     0.205 S 
HETATM   17  O1S SGN C   3      31.072  80.934  15.690  1.00 27.65    -0.578 OA
HETATM   18  O2S SGN C   3      30.274  82.354  17.521  1.00 27.72    -0.578 OA
HETATM   19  O3S SGN C   3      32.319  82.964  16.260  1.00 28.50    -0.578 OA
ENDBRANCH  14  16
ENDBRANCH   9  14
BRANCH  10  20
HETATM   20  O3  SGN C   3      31.064  85.729  14.533  1.00 34.89    -0.391 OA
ATOM     21  H3  SGN C   3      30.484  86.207  15.115  1.00  0.00     0.210 HD
ENDBRANCH  10  20
BRANCH  11  22
HETATM   22  O4  SGN C   3      30.050  86.672  11.937  1.00 37.13    -0.348 OA
BRANCH  22  23
HETATM   23  C1  UAP C   4      28.680  86.715  11.731  1.00 39.64     0.294 C 
HETATM   24  C2  UAP C   4      28.035  87.678  12.713  1.00 38.70     0.228 C 
HETATM   25  C3  UAP C   4      26.518  87.652  12.551  1.00 38.51     0.156 C 
HETATM   26  C4  UAP C   4      26.029  87.611  11.029  1.00 38.14     0.077 C 
HETATM   27  C5  UAP C   4      27.047  87.381  10.092  1.00 38.51     0.228 C 
HETATM   28  O5  UAP C   4      28.455  87.181  10.407  1.00 37.46    -0.343 OA
BRANCH  24  29
HETATM   29  O2  UAP C   4      28.333  87.270  14.087  1.00 40.54    -0.244 OA
BRANCH  29  30
HETATM   30  S   UAP C   4      28.561  88.358  15.239  1.00 40.49     0.252 S 
HETATM   31  O1S UAP C   4      28.280  89.674  14.647  1.00 40.89    -0.572 OA
HETATM   32  O2S UAP C   4      29.965  88.242  15.660  1.00 37.88    -0.572 OA
HETATM   33  O3S UAP C   4      27.628  88.035  16.330  1.00 37.47    -0.572 OA
ENDBRANCH  29  30
ENDBRANCH  24  29
BRANCH  25  34
HETATM   34  O3  UAP C   4      25.966  88.792  13.190  1.00 38.58    -0.393 OA
ATOM     35  H3  UAP C   4      25.446  89.278  12.560  1.00  0.00     0.210 HD
ENDBRANCH  25  34
BRANCH  27  36
HETATM   36  C6  UAP C   4      26.793  87.349   8.625  1.00 37.96     0.203 C 
HETATM   37  O6A UAP C   4      25.736  86.823   8.223  1.00 40.05    -0.646 OA
HETATM   38  O6B UAP C   4      27.650  87.847   7.865  1.00 36.71    -0.646 OA
ENDBRANCH  27  36
ENDBRANCH  22  23
ENDBRANCH  11  22
BRANCH  12  39
HETATM   39  C6  SGN C   3      30.259  84.654   9.760  1.00 42.65     0.227 C 
BRANCH  39  40
HETATM   40  O6  SGN C   3      31.691  84.830   9.693  1.00 51.09    -0.254 OA
BRANCH  40  41
HETATM   41  S2  SGN C   3      32.215  86.017   8.763  1.00 54.80     0.251 S 
HETATM   42  O4S SGN C   3      31.709  85.767   7.401  1.00 54.99    -0.572 OA
HETATM   43  O5S SGN C   3      33.707  85.973   8.817  1.00 53.99    -0.572 OA
HETATM   44  O6S SGN C   3      31.684  87.255   9.318  1.00 55.43    -0.572 OA
ENDBRANCH  40  41
ENDBRANCH  39  40
ENDBRANCH  12  39
ENDBRANCH   7   8
ENDBRANCH   4   7
BRANCH   3  45
HETATM   45  O3  IDS C   2      28.643  79.571  14.226  1.00 39.65    -0.390 OA
ATOM     46  H3  IDS C   2      28.461  78.729  13.828  1.00  0.00     0.210 HD
ENDBRANCH   3  45
BRANCH   5  47
HETATM   47  C6  IDS C   2      26.851  82.483  10.633  1.00 36.10     0.206 C 
HETATM   48  O6A IDS C   2      26.124  83.497  10.723  1.00 32.44    -0.646 OA
HETATM   49  O6B IDS C   2      27.683  82.296   9.714  1.00 33.44    -0.646 OA
ENDBRANCH   5  47
BRANCH   2  50
HETATM   50  O2  IDS C   2      26.010  79.069  14.999  1.00 43.59    -0.244 OA
BRANCH  50  51
HETATM   51  S   IDS C   2      26.800  77.733  15.373  1.00 44.11     0.252 S 
HETATM   52  O1S IDS C   2      27.434  77.235  14.105  1.00 44.48    -0.572 OA
HETATM   53  O2S IDS C   2      25.808  76.780  15.912  1.00 44.29    -0.572 OA
HETATM   54  O3S IDS C   2      27.794  78.095  16.367  1.00 44.74    -0.572 OA
ENDBRANCH  50  51
ENDBRANCH   2  50
BRANCH   1  55
HETATM   55  O4  SGN C   1      24.154  80.024  12.722  1.00 44.73    -0.348 OA
BRANCH  55  56
HETATM   56  C4  SGN C   1      22.979  80.768  12.331  1.00 48.25     0.186 C 
HETATM   57  C3  SGN C   1      22.642  81.808  13.407  1.00 48.43     0.178 C 
HETATM   58  C2  SGN C   1      21.497  82.701  12.933  1.00 48.58     0.181 C 
HETATM   59  C1  SGN C   1      21.792  83.315  11.565  1.00 50.40     0.283 C 
HETATM   60  O5  SGN C   1      22.095  82.284  10.617  1.00 50.82    -0.349 OA
HETATM   61  C5  SGN C   1      23.240  81.485  10.996  1.00 51.58     0.181 C 
BRANCH  57  62
HETATM   62  O3  SGN C   1      22.261  81.156  14.608  1.00 46.09    -0.391 OA
ATOM     63  H3  SGN C   1      22.483  80.234  14.548  1.00  0.00     0.210 HD
ENDBRANCH  57  62
BRANCH  58  64
HETATM   64  N2  SGN C   1      21.246  83.755  13.894  1.00 48.56    -0.289 N 
ATOM     65  H2  SGN C   1      21.967  84.115  14.518  1.00  0.00     0.175 HD
BRANCH  64  66
HETATM   66  S1  SGN C   1      19.693  84.327  13.898  1.00 47.67     0.205 S 
HETATM   67  O1S SGN C   1      19.728  85.658  13.254  1.00 47.59    -0.578 OA
HETATM   68  O2S SGN C   1      19.307  84.398  15.311  1.00 48.55    -0.578 OA
HETATM   69  O3S SGN C   1      18.881  83.352  13.137  1.00 47.08    -0.578 OA
ENDBRANCH  64  66
ENDBRANCH  58  64
BRANCH  59  70
HETATM   70  O1  SGN C   1      22.883  84.167  11.656  1.00 51.36    -0.369 OA
ATOM     71  H1  SGN C   1      22.798  84.869  11.022  1.00  0.00     0.212 HD
ENDBRANCH  59  70
BRANCH  61  72
HETATM   72  C6  SGN C   1      23.492  80.526   9.860  1.00 55.48     0.227 C 
BRANCH  72  73
HETATM   73  O6  SGN C   1      22.258  79.865   9.504  1.00 61.59    -0.254 OA
BRANCH  73  74
HETATM   74  S2  SGN C   1      22.264  78.281   9.682  1.00 65.98     0.251 S 
HETATM   75  O4S SGN C   1      23.718  77.856   9.899  1.00 65.09    -0.572 OA
HETATM   76  O5S SGN C   1      21.717  77.725   8.458  1.00 65.58    -0.572 OA
HETATM   77  O6S SGN C   1      21.371  77.954  10.919  1.00 65.84    -0.572 OA
ENDBRANCH  73  74
ENDBRANCH  72  73
ENDBRANCH  61  72
ENDBRANCH  55  56
ENDBRANCH   1  55
TORSDOF 27
ENDMDL
MODEL 68
REMARK VINA RESULT:      -5.3     14.993     20.263
REMARK  27 active torsions:
REMARK  status: ('A' for Active; 'I' for Inactive)
REMARK    1  A    between atoms: C1_1  and  O1_2 
REMARK    2  A    between atoms: S1_5  and  N2_7 
REMARK    3  A    between atoms: C2_6  and  N2_7 
REMARK    4  A    between atoms: S2_10  and  O6_22 
REMARK    5  A    between atoms: C3_11  and  O3_12 
REMARK    6  A    between atoms: C4_15  and  O4_16 
REMARK    7  A    between atoms: O4_16  and  C1_24 
REMARK    8  A    between atoms: C5_18  and  C6_21 
REMARK    9  A    between atoms: C6_21  and  O6_22 
REMARK   10  A    between atoms: C2_26  and  O2_27 
REMARK   11  A    between atoms: O2_27  and  S_40 
REMARK   12  A    between atoms: C3_29  and  O3_30 
REMARK   13  A    between atoms: C4_33  and  O4_34 
REMARK   14  A    between atoms: O4_34  and  C1_41 
REMARK   15  A    between atoms: C5_35  and  C6_37 
REMARK   16  A    between atoms: S1_43  and  N2_45 
REMARK   17  A    between atoms: C2_44  and  N2_45 
REMARK   18  A    between atoms: S2_48  and  O6_60 
REMARK   19  A    between atoms: C3_49  and  O3_50 
REMARK   20  A    between atoms: C4_53  and  O4_54 
REMARK   21  A    between atoms: O4_54  and  C1_62 
REMARK   22  A    between atoms: C5_56  and  C6_59 
REMARK   23  A    between atoms: C6_59  and  O6_60 
REMARK   24  A    between atoms: C2_64  and  O2_65 
REMARK   25  A    between atoms: O2_65  and  S_77 
REMARK   26  A    between atoms: C3_67  and  O3_68 
REMARK   27  A    between atoms: C5_72  and  C6_74 
ROOT
HETATM    1  C1  IDS C   2      22.377  85.158  11.231  1.00 40.81     0.294 C 
HETATM    2  C2  IDS C   2      21.890  86.424  11.942  1.00 40.20     0.231 C 
HETATM    3  C3  IDS C   2      22.817  87.602  11.658  1.00 39.01     0.185 C 
HETATM    4  C4  IDS C   2      24.251  87.308  12.145  1.00 37.65     0.195 C 
HETATM    5  C5  IDS C   2      24.454  85.794  12.279  1.00 35.99     0.257 C 
HETATM    6  O5  IDS C   2      23.819  85.116  11.169  1.00 39.00    -0.340 OA
ENDROOT
BRANCH   4   7
HETATM    7  O4  IDS C   2      25.210  87.857  11.207  1.00 35.98    -0.348 OA
BRANCH   7   8
HETATM    8  C1  SGN C   3      25.213  89.253  11.074  1.00 35.40     0.287 C 
HETATM    9  C2  SGN C   3      25.947  89.660   9.784  1.00 33.71     0.182 C 
HETATM   10  C3  SGN C   3      27.465  89.478   9.895  1.00 35.79     0.178 C 
HETATM   11  C4  SGN C   3      28.018  90.052  11.211  1.00 36.62     0.186 C 
HETATM   12  C5  SGN C   3      27.186  89.560  12.388  1.00 39.32     0.181 C 
HETATM   13  O5  SGN C   3      25.801  89.897  12.190  1.00 37.58    -0.349 OA
BRANCH   9  14
HETATM   14  N2  SGN C   3      25.462  88.861   8.680  1.00 29.28    -0.289 N 
ATOM     15  H2  SGN C   3      25.495  87.842   8.711  1.00  0.00     0.175 HD
BRANCH  14  16
HETATM   16  S1  SGN C   3      24.854  89.658   7.367  1.00 27.84     0.205 S 
HETATM   17  O1S SGN C   3      25.451  90.978   7.433  1.00 27.65    -0.578 OA
HETATM   18  O2S SGN C   3      23.376  89.682   7.573  1.00 27.72    -0.578 OA
HETATM   19  O3S SGN C   3      25.234  88.923   6.119  1.00 28.50    -0.578 OA
ENDBRANCH  14  16
ENDBRANCH   9  14
BRANCH  10  20
HETATM   20  O3  SGN C   3      28.102  90.102   8.783  1.00 34.89    -0.391 OA
ATOM     21  H3  SGN C   3      27.924  89.602   7.995  1.00  0.00     0.210 HD
ENDBRANCH  10  20
BRANCH  11  22
HETATM   22  O4  SGN C   3      29.374  89.604  11.390  1.00 37.13    -0.348 OA
BRANCH  22  23
HETATM   23  C1  UAP C   4      29.675  88.380  10.813  1.00 39.64     0.294 C 
HETATM   24  C2  UAP C   4      30.987  88.468  10.056  1.00 38.70     0.228 C 
HETATM   25  C3  UAP C   4      31.269  87.149   9.342  1.00 38.51     0.156 C 
HETATM   26  C4  UAP C   4      30.934  85.854  10.217  1.00 38.14     0.077 C 
HETATM   27  C5  UAP C   4      30.232  86.114  11.403  1.00 38.51     0.228 C 
HETATM   28  O5  UAP C   4      29.806  87.429  11.862  1.00 37.46    -0.343 OA
BRANCH  24  29
HETATM   29  O2  UAP C   4      30.907  89.510   9.031  1.00 40.54    -0.244 OA
BRANCH  29  30
HETATM   30  S   UAP C   4      31.958  90.717   8.997  1.00 40.49     0.252 S 
HETATM   31  O1S UAP C   4      33.249  90.150   8.582  1.00 40.89    -0.572 OA
HETATM   32  O2S UAP C   4      32.020  91.263  10.361  1.00 37.88    -0.572 OA
HETATM   33  O3S UAP C   4      31.453  91.703   8.029  1.00 37.47    -0.572 OA
ENDBRANCH  29  30
ENDBRANCH  24  29
BRANCH  25  34
HETATM   34  O3  UAP C   4      32.634  87.114   8.958  1.00 38.58    -0.393 OA
ATOM     35  H3  UAP C   4      32.735  86.517   8.226  1.00  0.00     0.210 HD
ENDBRANCH  25  34
BRANCH  27  36
HETATM   36  C6  UAP C   4      29.866  85.040  12.368  1.00 37.96     0.203 C 
HETATM   37  O6A UAP C   4      29.905  85.304  13.586  1.00 40.05    -0.646 OA
HETATM   38  O6B UAP C   4      29.538  83.923  11.914  1.00 36.71    -0.646 OA
ENDBRANCH  27  36
ENDBRANCH  22  23
ENDBRANCH  11  22
BRANCH  12  39
HETATM   39  C6  SGN C   3      27.595  90.133  13.716  1.00 42.65     0.227 C 
BRANCH  39  40
HETATM   40  O6  SGN C   3      28.241  89.054  14.425  1.00 51.09    -0.254 OA
BRANCH  40  41
HETATM   41  S2  SGN C   3      29.625  89.403  15.137  1.00 54.80     0.251 S 
HETATM   42  O4S SGN C   3      30.498  88.222  15.010  1.00 54.99    -0.572 OA
HETATM   43  O5S SGN C   3      29.307  89.705  16.565  1.00 53.99    -0.572 OA
HETATM   44  O6S SGN C   3      30.177  90.560  14.444  1.00 55.43    -0.572 OA
ENDBRANCH  40  41
ENDBRANCH  39  40
ENDBRANCH  12  39
ENDBRANCH   7   8
ENDBRANCH   4   7
BRANCH   3  45
HETATM   45  O3  IDS C   2      22.317  88.765  12.305  1.00 39.65    -0.390 OA
ATOM     46  H3  IDS C   2      22.945  89.472  12.215  1.00  0.00     0.210 HD
ENDBRANCH   3  45
BRANCH   5  47
HETATM   47  C6  IDS C   2      25.908  85.343  12.332  1.00 36.10     0.206 C 
HETATM   48  O6A IDS C   2      26.332  84.641  11.387  1.00 32.44    -0.646 OA
HETATM   49  O6B IDS C   2      26.610  85.707  13.306  1.00 33.44    -0.646 OA
ENDBRANCH   5  47
BRANCH   2  50
HETATM   50  O2  IDS C   2      20.556  86.769  11.470  1.00 43.59    -0.244 OA
BRANCH  50  51
HETATM   51  S   IDS C   2      19.333  86.772  12.496  1.00 44.11     0.252 S 
HETATM   52  O1S IDS C   2      18.080  86.634  11.679  1.00 44.48    -0.572 OA
HETATM   53  O2S IDS C   2      19.383  88.057  13.226  1.00 44.29    -0.572 OA
HETATM   54  O3S IDS C   2      19.526  85.641  13.385  1.00 44.74    -0.572 OA
ENDBRANCH  50  51
ENDBRANCH   2  50
BRANCH   1  55
HETATM   55  O4  SGN C   1      21.931  84.040  11.921  1.00 44.73    -0.348 OA
BRANCH  55  56
HETATM   56  C4  SGN C   1      21.813  82.802  11.186  1.00 48.25     0.186 C 
HETATM   57  C3  SGN C   1      22.598  81.696  11.903  1.00 48.43     0.178 C 
HETATM   58  C2  SGN C   1      22.352  80.352  11.219  1.00 48.58     0.181 C 
HETATM   59  C1  SGN C   1      20.860  80.052  11.089  1.00 50.40     0.283 C 
HETATM   60  O5  SGN C   1      20.199  81.126  10.409  1.00 50.82    -0.349 OA
HETATM   61  C5  SGN C   1      20.333  82.394  11.091  1.00 51.58     0.181 C 
BRANCH  57  62
HETATM   62  O3  SGN C   1      23.985  81.990  11.873  1.00 46.09    -0.391 OA
ATOM     63  H3  SGN C   1      24.107  82.933  11.894  1.00  0.00     0.210 HD
ENDBRANCH  57  62
BRANCH  58  64
HETATM   64  N2  SGN C   1      23.000  79.285  11.954  1.00 48.56    -0.289 N 
ATOM     65  H2  SGN C   1      22.755  79.050  12.916  1.00  0.00     0.175 HD
BRANCH  64  66
HETATM   66  S1  SGN C   1      24.171  78.479  11.108  1.00 47.67     0.205 S 
HETATM   67  O1S SGN C   1      24.650  77.385  11.981  1.00 47.59    -0.578 OA
HETATM   68  O2S SGN C   1      25.212  79.475  10.835  1.00 48.55    -0.578 OA
HETATM   69  O3S SGN C   1      23.530  77.976   9.873  1.00 47.08    -0.578 OA
ENDBRANCH  64  66
ENDBRANCH  58  64
BRANCH  59  70
HETATM   70  O1  SGN C   1      20.296  79.910  12.348  1.00 51.36    -0.369 OA
ATOM     71  H1  SGN C   1      19.357  80.042  12.298  1.00  0.00     0.212 HD
ENDBRANCH  59  70
BRANCH  61  72
HETATM   72  C6  SGN C   1      19.504  83.389  10.319  1.00 55.48     0.227 C 
BRANCH  72  73
HETATM   73  O6  SGN C   1      18.752  82.701   9.296  1.00 61.59    -0.254 OA
BRANCH  73  74
HETATM   74  S2  SGN C   1      17.184  82.602   9.561  1.00 65.98     0.251 S 
HETATM   75  O4S SGN C   1      16.871  81.137   9.878  1.00 65.09    -0.572 OA
HETATM   76  O5S SGN C   1      16.530  83.042   8.343  1.00 65.58    -0.572 OA
HETATM   77  O6S SGN C   1      16.860  83.540  10.766  1.00 65.84    -0.572 OA
ENDBRANCH  73  74
ENDBRANCH  72  73
ENDBRANCH  61  72
ENDBRANCH  55  56
ENDBRANCH   1  55
TORSDOF 27
ENDMDL
MODEL 69
REMARK VINA RESULT:      -5.3      9.058     14.756
REMARK  27 active torsions:
REMARK  status: ('A' for Active; 'I' for Inactive)
REMARK    1  A    between atoms: C1_1  and  O1_2 
REMARK    2  A    between atoms: S1_5  and  N2_7 
REMARK    3  A    between atoms: C2_6  and  N2_7 
REMARK    4  A    between atoms: S2_10  and  O6_22 
REMARK    5  A    between atoms: C3_11  and  O3_12 
REMARK    6  A    between atoms: C4_15  and  O4_16 
REMARK    7  A    between atoms: O4_16  and  C1_24 
REMARK    8  A    between atoms: C5_18  and  C6_21 
REMARK    9  A    between atoms: C6_21  and  O6_22 
REMARK   10  A    between atoms: C2_26  and  O2_27 
REMARK   11  A    between atoms: O2_27  and  S_40 
REMARK   12  A    between atoms: C3_29  and  O3_30 
REMARK   13  A    between atoms: C4_33  and  O4_34 
REMARK   14  A    between atoms: O4_34  and  C1_41 
REMARK   15  A    between atoms: C5_35  and  C6_37 
REMARK   16  A    between atoms: S1_43  and  N2_45 
REMARK   17  A    between atoms: C2_44  and  N2_45 
REMARK   18  A    between atoms: S2_48  and  O6_60 
REMARK   19  A    between atoms: C3_49  and  O3_50 
REMARK   20  A    between atoms: C4_53  and  O4_54 
REMARK   21  A    between atoms: O4_54  and  C1_62 
REMARK   22  A    between atoms: C5_56  and  C6_59 
REMARK   23  A    between atoms: C6_59  and  O6_60 
REMARK   24  A    between atoms: C2_64  and  O2_65 
REMARK   25  A    between atoms: O2_65  and  S_77 
REMARK   26  A    between atoms: C3_67  and  O3_68 
REMARK   27  A    between atoms: C5_72  and  C6_74 
ROOT
HETATM    1  C1  IDS C   2      27.157  86.305  12.646  1.00 40.81     0.294 C 
HETATM    2  C2  IDS C   2      27.985  86.649  13.886  1.00 40.20     0.231 C 
HETATM    3  C3  IDS C   2      29.030  85.572  14.163  1.00 39.01     0.185 C 
HETATM    4  C4  IDS C   2      28.363  84.203  14.405  1.00 37.65     0.195 C 
HETATM    5  C5  IDS C   2      26.953  84.197  13.800  1.00 35.99     0.257 C 
HETATM    6  O5  IDS C   2      26.968  84.878  12.523  1.00 39.00    -0.340 OA
ENDROOT
BRANCH   4   7
HETATM    7  O4  IDS C   2      29.164  83.153  13.807  1.00 35.98    -0.348 OA
BRANCH   7   8
HETATM    8  C1  SGN C   3      30.099  82.536  14.650  1.00 35.40     0.287 C 
HETATM    9  C2  SGN C   3      31.370  82.179  13.859  1.00 33.71     0.182 C 
HETATM   10  C3  SGN C   3      31.154  80.991  12.914  1.00 35.79     0.178 C 
HETATM   11  C4  SGN C   3      30.428  79.827  13.611  1.00 36.62     0.186 C 
HETATM   12  C5  SGN C   3      29.199  80.342  14.348  1.00 39.32     0.181 C 
HETATM   13  O5  SGN C   3      29.575  81.377  15.274  1.00 37.58    -0.349 OA
BRANCH   9  14
HETATM   14  N2  SGN C   3      31.791  83.322  13.080  1.00 29.28    -0.289 N 
ATOM     15  H2  SGN C   3      31.162  83.765  12.411  1.00  0.00     0.175 HD
BRANCH  14  16
HETATM   16  S1  SGN C   3      33.327  83.884  13.313  1.00 27.84     0.205 S 
HETATM   17  O1S SGN C   3      34.181  82.852  12.755  1.00 27.65    -0.578 OA
HETATM   18  O2S SGN C   3      33.475  84.018  14.792  1.00 27.72    -0.578 OA
HETATM   19  O3S SGN C   3      33.488  85.197  12.613  1.00 28.50    -0.578 OA
ENDBRANCH  14  16
ENDBRANCH   9  14
BRANCH  10  20
HETATM   20  O3  SGN C   3      32.412  80.551  12.408  1.00 34.89    -0.391 OA
ATOM     21  H3  SGN C   3      33.105  80.838  12.990  1.00  0.00     0.210 HD
ENDBRANCH  10  20
BRANCH  11  22
HETATM   22  O4  SGN C   3      30.002  78.875  12.620  1.00 37.13    -0.348 OA
BRANCH  22  23
HETATM   23  C1  UAP C   4      31.007  78.084  12.085  1.00 39.64     0.294 C 
HETATM   24  C2  UAP C   4      31.446  77.042  13.098  1.00 38.70     0.228 C 
HETATM   25  C3  UAP C   4      32.618  76.236  12.545  1.00 38.51     0.156 C 
HETATM   26  C4  UAP C   4      32.463  75.841  11.004  1.00 38.14     0.077 C 
HETATM   27  C5  UAP C   4      31.401  76.474  10.341  1.00 38.51     0.228 C 
HETATM   28  O5  UAP C   4      30.479  77.427  10.941  1.00 37.46    -0.343 OA
BRANCH  24  29
HETATM   29  O2  UAP C   4      31.907  77.695  14.324  1.00 40.54    -0.244 OA
BRANCH  29  30
HETATM   30  S   UAP C   4      31.572  77.078  15.763  1.00 40.49     0.252 S 
HETATM   31  O1S UAP C   4      30.265  76.415  15.651  1.00 40.89    -0.572 OA
HETATM   32  O2S UAP C   4      31.531  78.203  16.708  1.00 37.88    -0.572 OA
HETATM   33  O3S UAP C   4      32.646  76.125  16.086  1.00 37.47    -0.572 OA
ENDBRANCH  29  30
ENDBRANCH  24  29
BRANCH  25  34
HETATM   34  O3  UAP C   4      32.773  75.056  13.318  1.00 38.58    -0.393 OA
ATOM     35  H3  UAP C   4      33.682  74.782  13.285  1.00  0.00     0.210 HD
ENDBRANCH  25  34
BRANCH  27  36
HETATM   36  C6  UAP C   4      31.074  76.202   8.913  1.00 37.96     0.203 C 
HETATM   37  O6A UAP C   4      30.059  76.741   8.429  1.00 40.05    -0.646 OA
HETATM   38  O6B UAP C   4      31.829  75.445   8.267  1.00 36.71    -0.646 OA
ENDBRANCH  27  36
ENDBRANCH  22  23
ENDBRANCH  11  22
BRANCH  12  39
HETATM   39  C6  SGN C   3      28.464  79.292  15.134  1.00 42.65     0.227 C 
BRANCH  39  40
HETATM   40  O6  SGN C   3      27.700  78.542  14.164  1.00 51.09    -0.254 OA
BRANCH  40  41
HETATM   41  S2  SGN C   3      26.292  77.976  14.657  1.00 54.80     0.251 S 
HETATM   42  O4S SGN C   3      25.510  77.631  13.456  1.00 54.99    -0.572 OA
HETATM   43  O5S SGN C   3      25.646  79.068  15.445  1.00 53.99    -0.572 OA
HETATM   44  O6S SGN C   3      26.571  76.803  15.475  1.00 55.43    -0.572 OA
ENDBRANCH  40  41
ENDBRANCH  39  40
ENDBRANCH  12  39
ENDBRANCH   7   8
ENDBRANCH   4   7
BRANCH   3  45
HETATM   45  O3  IDS C   2      29.801  85.940  15.299  1.00 39.65    -0.390 OA
ATOM     46  H3  IDS C   2      30.490  85.302  15.435  1.00  0.00     0.210 HD
ENDBRANCH   3  45
BRANCH   5  47
HETATM   47  C6  IDS C   2      26.352  82.815  13.585  1.00 36.10     0.206 C 
HETATM   48  O6A IDS C   2      26.169  82.439  12.406  1.00 32.44    -0.646 OA
HETATM   49  O6B IDS C   2      26.084  82.118  14.593  1.00 33.44    -0.646 OA
ENDBRANCH   5  47
BRANCH   2  50
HETATM   50  O2  IDS C   2      28.678  87.914  13.679  1.00 43.59    -0.244 OA
BRANCH  50  51
HETATM   51  S   IDS C   2      28.886  88.910  14.909  1.00 44.11     0.252 S 
HETATM   52  O1S IDS C   2      28.035  88.394  16.034  1.00 44.48    -0.572 OA
HETATM   53  O2S IDS C   2      28.460  90.251  14.458  1.00 44.29    -0.572 OA
HETATM   54  O3S IDS C   2      30.299  88.879  15.242  1.00 44.74    -0.572 OA
ENDBRANCH  50  51
ENDBRANCH   2  50
BRANCH   1  55
HETATM   55  O4  SGN C   1      25.911  86.910  12.739  1.00 44.73    -0.348 OA
BRANCH  55  56
HETATM   56  C4  SGN C   1      25.101  86.963  11.544  1.00 48.25     0.186 C 
HETATM   57  C3  SGN C   1      23.829  86.129  11.742  1.00 48.43     0.178 C 
HETATM   58  C2  SGN C   1      22.895  86.305  10.546  1.00 48.58     0.181 C 
HETATM   59  C1  SGN C   1      22.617  87.780  10.262  1.00 50.40     0.283 C 
HETATM   60  O5  SGN C   1      23.850  88.490  10.087  1.00 50.82    -0.349 OA
HETATM   61  C5  SGN C   1      24.711  88.421  11.248  1.00 51.58     0.181 C 
BRANCH  57  62
HETATM   62  O3  SGN C   1      24.166  84.758  11.876  1.00 46.09    -0.391 OA
ATOM     63  H3  SGN C   1      24.339  84.565  12.791  1.00  0.00     0.210 HD
ENDBRANCH  57  62
BRANCH  58  64
HETATM   64  N2  SGN C   1      21.645  85.609  10.773  1.00 48.56    -0.289 N 
ATOM     65  H2  SGN C   1      20.972  85.904  11.480  1.00  0.00     0.175 HD
BRANCH  64  66
HETATM   66  S1  SGN C   1      21.400  84.299   9.794  1.00 47.67     0.205 S 
HETATM   67  O1S SGN C   1      19.936  84.146   9.648  1.00 47.59    -0.578 OA
HETATM   68  O2S SGN C   1      22.014  83.167  10.495  1.00 48.55    -0.578 OA
HETATM   69  O3S SGN C   1      22.067  84.600   8.509  1.00 47.08    -0.578 OA
ENDBRANCH  64  66
ENDBRANCH  58  64
BRANCH  59  70
HETATM   70  O1  SGN C   1      21.928  88.343  11.326  1.00 51.36    -0.369 OA
ATOM     71  H1  SGN C   1      22.486  88.368  12.095  1.00  0.00     0.212 HD
ENDBRANCH  59  70
BRANCH  61  72
HETATM   72  C6  SGN C   1      25.905  89.294  10.951  1.00 55.48     0.227 C 
BRANCH  72  73
HETATM   73  O6  SGN C   1      25.455  90.603  10.538  1.00 61.59    -0.254 OA
BRANCH  73  74
HETATM   74  S2  SGN C   1      25.042  91.582  11.726  1.00 65.98     0.251 S 
HETATM   75  O4S SGN C   1      25.539  90.947  13.027  1.00 65.09    -0.572 OA
HETATM   76  O5S SGN C   1      23.595  91.684  11.693  1.00 65.58    -0.572 OA
HETATM   77  O6S SGN C   1      25.729  92.956  11.449  1.00 65.84    -0.572 OA
ENDBRANCH  73  74
ENDBRANCH  72  73
ENDBRANCH  61  72
ENDBRANCH  55  56
ENDBRANCH   1  55
TORSDOF 27
ENDMDL
MODEL 70
REMARK VINA RESULT:      -5.2      3.312     11.412
REMARK  27 active torsions:
REMARK  status: ('A' for Active; 'I' for Inactive)
REMARK    1  A    between atoms: C1_1  and  O1_2 
REMARK    2  A    between atoms: S1_5  and  N2_7 
REMARK    3  A    between atoms: C2_6  and  N2_7 
REMARK    4  A    between atoms: S2_10  and  O6_22 
REMARK    5  A    between atoms: C3_11  and  O3_12 
REMARK    6  A    between atoms: C4_15  and  O4_16 
REMARK    7  A    between atoms: O4_16  and  C1_24 
REMARK    8  A    between atoms: C5_18  and  C6_21 
REMARK    9  A    between atoms: C6_21  and  O6_22 
REMARK   10  A    between atoms: C2_26  and  O2_27 
REMARK   11  A    between atoms: O2_27  and  S_40 
REMARK   12  A    between atoms: C3_29  and  O3_30 
REMARK   13  A    between atoms: C4_33  and  O4_34 
REMARK   14  A    between atoms: O4_34  and  C1_41 
REMARK   15  A    between atoms: C5_35  and  C6_37 
REMARK   16  A    between atoms: S1_43  and  N2_45 
REMARK   17  A    between atoms: C2_44  and  N2_45 
REMARK   18  A    between atoms: S2_48  and  O6_60 
REMARK   19  A    between atoms: C3_49  and  O3_50 
REMARK   20  A    between atoms: C4_53  and  O4_54 
REMARK   21  A    between atoms: O4_54  and  C1_62 
REMARK   22  A    between atoms: C5_56  and  C6_59 
REMARK   23  A    between atoms: C6_59  and  O6_60 
REMARK   24  A    between atoms: C2_64  and  O2_65 
REMARK   25  A    between atoms: O2_65  and  S_77 
REMARK   26  A    between atoms: C3_67  and  O3_68 
REMARK   27  A    between atoms: C5_72  and  C6_74 
ROOT
HETATM    1  C1  IDS C   2      36.402  71.612  21.320  1.00 40.81     0.294 C 
HETATM    2  C2  IDS C   2      35.081  71.355  22.050  1.00 40.20     0.231 C 
HETATM    3  C3  IDS C   2      33.894  71.488  21.100  1.00 39.01     0.185 C 
HETATM    4  C4  IDS C   2      33.830  72.903  20.490  1.00 37.65     0.195 C 
HETATM    5  C5  IDS C   2      35.206  73.574  20.585  1.00 35.99     0.257 C 
HETATM    6  O5  IDS C   2      36.241  72.608  20.286  1.00 39.00    -0.340 OA
ENDROOT
BRANCH   4   7
HETATM    7  O4  IDS C   2      33.412  72.822  19.105  1.00 35.98    -0.348 OA
BRANCH   7   8
HETATM    8  C1  SGN C   3      32.061  72.515  18.885  1.00 35.40     0.287 C 
HETATM    9  C2  SGN C   3      31.811  72.269  17.387  1.00 33.71     0.182 C 
HETATM   10  C3  SGN C   3      31.845  73.566  16.570  1.00 35.79     0.178 C 
HETATM   11  C4  SGN C   3      31.018  74.682  17.230  1.00 36.62     0.186 C 
HETATM   12  C5  SGN C   3      31.379  74.798  18.706  1.00 39.32     0.181 C 
HETATM   13  O5  SGN C   3      31.196  73.530  19.361  1.00 37.58    -0.349 OA
BRANCH   9  14
HETATM   14  N2  SGN C   3      32.818  71.368  16.870  1.00 29.28    -0.289 N 
ATOM     15  H2  SGN C   3      33.633  71.719  16.368  1.00  0.00     0.175 HD
BRANCH  14  16
HETATM   16  S1  SGN C   3      32.601  69.750  17.123  1.00 27.84     0.205 S 
HETATM   17  O1S SGN C   3      33.459  69.439  18.251  1.00 27.65    -0.578 OA
HETATM   18  O2S SGN C   3      33.048  69.093  15.859  1.00 27.72    -0.578 OA
HETATM   19  O3S SGN C   3      31.157  69.481  17.414  1.00 28.50    -0.578 OA
ENDBRANCH  14  16
ENDBRANCH   9  14
BRANCH  10  20
HETATM   20  O3  SGN C   3      31.360  73.312  15.254  1.00 34.89    -0.391 OA
ATOM     21  H3  SGN C   3      30.687  72.642  15.288  1.00  0.00     0.210 HD
ENDBRANCH  10  20
BRANCH  11  22
HETATM   22  O4  SGN C   3      31.315  75.934  16.587  1.00 37.13    -0.348 OA
BRANCH  22  23
HETATM   23  C1  UAP C   4      31.832  75.835  15.305  1.00 39.64     0.294 C 
HETATM   24  C2  UAP C   4      31.191  76.873  14.401  1.00 38.70     0.228 C 
HETATM   25  C3  UAP C   4      31.688  76.699  12.969  1.00 38.51     0.156 C 
HETATM   26  C4  UAP C   4      33.255  76.398  12.860  1.00 38.14     0.077 C 
HETATM   27  C5  UAP C   4      33.885  76.119  14.081  1.00 38.51     0.228 C 
HETATM   28  O5  UAP C   4      33.229  76.084  15.381  1.00 37.46    -0.343 OA
BRANCH  24  29
HETATM   29  O2  UAP C   4      29.738  76.695  14.382  1.00 40.54    -0.244 OA
BRANCH  29  30
HETATM   30  S   UAP C   4      28.758  77.857  14.885  1.00 40.49     0.252 S 
HETATM   31  O1S UAP C   4      27.728  77.218  15.716  1.00 40.89    -0.572 OA
HETATM   32  O2S UAP C   4      28.179  78.473  13.682  1.00 37.88    -0.572 OA
HETATM   33  O3S UAP C   4      29.574  78.808  15.655  1.00 37.47    -0.572 OA
ENDBRANCH  29  30
ENDBRANCH  24  29
BRANCH  25  34
HETATM   34  O3  UAP C   4      31.384  77.870  12.229  1.00 38.58    -0.393 OA
ATOM     35  H3  UAP C   4      31.156  77.624  11.340  1.00  0.00     0.210 HD
ENDBRANCH  25  34
BRANCH  27  36
HETATM   36  C6  UAP C   4      35.347  75.854  14.185  1.00 37.96     0.203 C 
HETATM   37  O6A UAP C   4      35.831  75.660  15.318  1.00 40.05    -0.646 OA
HETATM   38  O6B UAP C   4      36.022  75.840  13.133  1.00 36.71    -0.646 OA
ENDBRANCH  27  36
ENDBRANCH  22  23
ENDBRANCH  11  22
BRANCH  12  39
HETATM   39  C6  SGN C   3      30.563  75.808  19.464  1.00 42.65     0.227 C 
BRANCH  39  40
HETATM   40  O6  SGN C   3      29.816  75.053  20.442  1.00 51.09    -0.254 OA
BRANCH  40  41
HETATM   41  S2  SGN C   3      28.507  75.753  21.028  1.00 54.80     0.251 S 
HETATM   42  O4S SGN C   3      27.641  74.688  21.567  1.00 54.99    -0.572 OA
HETATM   43  O5S SGN C   3      27.860  76.470  19.889  1.00 53.99    -0.572 OA
HETATM   44  O6S SGN C   3      28.949  76.669  22.071  1.00 55.43    -0.572 OA
ENDBRANCH  40  41
ENDBRANCH  39  40
ENDBRANCH  12  39
ENDBRANCH   7   8
ENDBRANCH   4   7
BRANCH   3  45
HETATM   45  O3  IDS C   2      32.691  71.211  21.803  1.00 39.65    -0.390 OA
ATOM     46  H3  IDS C   2      31.948  71.366  21.232  1.00  0.00     0.210 HD
ENDBRANCH   3  45
BRANCH   5  47
HETATM   47  C6  IDS C   2      35.403  74.770  19.663  1.00 36.10     0.206 C 
HETATM   48  O6A IDS C   2      34.751  75.808  19.913  1.00 32.44    -0.646 OA
HETATM   49  O6B IDS C   2      36.216  74.663  18.714  1.00 33.44    -0.646 OA
ENDBRANCH   5  47
BRANCH   2  50
HETATM   50  O2  IDS C   2      35.077  70.005  22.599  1.00 43.59    -0.244 OA
BRANCH  50  51
HETATM   51  S   IDS C   2      34.645  69.772  24.117  1.00 44.11     0.252 S 
HETATM   52  O1S IDS C   2      35.911  69.597  24.907  1.00 44.48    -0.572 OA
HETATM   53  O2S IDS C   2      33.799  68.560  24.146  1.00 44.29    -0.572 OA
HETATM   54  O3S IDS C   2      33.908  70.953  24.532  1.00 44.74    -0.572 OA
ENDBRANCH  50  51
ENDBRANCH   2  50
BRANCH   1  55
HETATM   55  O4  SGN C   1      37.351  72.064  22.226  1.00 44.73    -0.348 OA
BRANCH  55  56
HETATM   56  C4  SGN C   1      38.674  71.490  22.151  1.00 48.25     0.186 C 
HETATM   57  C3  SGN C   1      38.572  69.970  21.977  1.00 48.43     0.178 C 
HETATM   58  C2  SGN C   1      39.959  69.374  21.742  1.00 48.58     0.181 C 
HETATM   59  C1  SGN C   1      40.682  70.071  20.590  1.00 50.40     0.283 C 
HETATM   60  O5  SGN C   1      40.739  71.483  20.826  1.00 50.82    -0.349 OA
HETATM   61  C5  SGN C   1      39.432  72.088  20.954  1.00 51.58     0.181 C 
BRANCH  57  62
HETATM   62  O3  SGN C   1      38.002  69.387  23.138  1.00 46.09    -0.391 OA
ATOM     63  H3  SGN C   1      37.364  69.986  23.509  1.00  0.00     0.210 HD
ENDBRANCH  57  62
BRANCH  58  64
HETATM   64  N2  SGN C   1      39.860  67.956  21.467  1.00 48.56    -0.289 N 
ATOM     65  H2  SGN C   1      39.400  67.586  20.635  1.00  0.00     0.175 HD
BRANCH  64  66
HETATM   66  S1  SGN C   1      40.554  66.983  22.611  1.00 47.67     0.205 S 
HETATM   67  O1S SGN C   1      41.832  67.622  22.994  1.00 47.59    -0.578 OA
HETATM   68  O2S SGN C   1      40.751  65.687  21.954  1.00 48.55    -0.578 OA
HETATM   69  O3S SGN C   1      39.600  66.909  23.739  1.00 47.08    -0.578 OA
ENDBRANCH  64  66
ENDBRANCH  58  64
BRANCH  59  70
HETATM   70  O1  SGN C   1      40.002  69.847  19.402  1.00 51.36    -0.369 OA
ATOM     71  H1  SGN C   1      39.067  69.937  19.543  1.00  0.00     0.212 HD
ENDBRANCH  59  70
BRANCH  61  72
HETATM   72  C6  SGN C   1      39.655  73.574  21.090  1.00 55.48     0.227 C 
BRANCH  72  73
HETATM   73  O6  SGN C   1      39.215  74.241  19.887  1.00 61.59    -0.254 OA
BRANCH  73  74
HETATM   74  S2  SGN C   1      40.115  75.473  19.429  1.00 65.98     0.251 S 
HETATM   75  O4S SGN C   1      40.885  75.953  20.662  1.00 65.09    -0.572 OA
HETATM   76  O5S SGN C   1      39.205  76.489  18.933  1.00 65.58    -0.572 OA
HETATM   77  O6S SGN C   1      41.073  74.954  18.311  1.00 65.84    -0.572 OA
ENDBRANCH  73  74
ENDBRANCH  72  73
ENDBRANCH  61  72
ENDBRANCH  55  56
ENDBRANCH   1  55
TORSDOF 27
ENDMDL
MODEL 71
REMARK VINA RESULT:      -5.2      4.293      7.526
REMARK  27 active torsions:
REMARK  status: ('A' for Active; 'I' for Inactive)
REMARK    1  A    between atoms: C1_1  and  O1_2 
REMARK    2  A    between atoms: S1_5  and  N2_7 
REMARK    3  A    between atoms: C2_6  and  N2_7 
REMARK    4  A    between atoms: S2_10  and  O6_22 
REMARK    5  A    between atoms: C3_11  and  O3_12 
REMARK    6  A    between atoms: C4_15  and  O4_16 
REMARK    7  A    between atoms: O4_16  and  C1_24 
REMARK    8  A    between atoms: C5_18  and  C6_21 
REMARK    9  A    between atoms: C6_21  and  O6_22 
REMARK   10  A    between atoms: C2_26  and  O2_27 
REMARK   11  A    between atoms: O2_27  and  S_40 
REMARK   12  A    between atoms: C3_29  and  O3_30 
REMARK   13  A    between atoms: C4_33  and  O4_34 
REMARK   14  A    between atoms: O4_34  and  C1_41 
REMARK   15  A    between atoms: C5_35  and  C6_37 
REMARK   16  A    between atoms: S1_43  and  N2_45 
REMARK   17  A    between atoms: C2_44  and  N2_45 
REMARK   18  A    between atoms: S2_48  and  O6_60 
REMARK   19  A    between atoms: C3_49  and  O3_50 
REMARK   20  A    between atoms: C4_53  and  O4_54 
REMARK   21  A    between atoms: O4_54  and  C1_62 
REMARK   22  A    between atoms: C5_56  and  C6_59 
REMARK   23  A    between atoms: C6_59  and  O6_60 
REMARK   24  A    between atoms: C2_64  and  O2_65 
REMARK   25  A    between atoms: O2_65  and  S_77 
REMARK   26  A    between atoms: C3_67  and  O3_68 
REMARK   27  A    between atoms: C5_72  and  C6_74 
ROOT
HETATM    1  C1  IDS C   2      32.532  76.065  14.658  1.00 40.81     0.294 C 
HETATM    2  C2  IDS C   2      31.964  76.687  15.936  1.00 40.20     0.231 C 
HETATM    3  C3  IDS C   2      32.901  76.460  17.120  1.00 39.01     0.185 C 
HETATM    4  C4  IDS C   2      33.110  74.955  17.379  1.00 37.65     0.195 C 
HETATM    5  C5  IDS C   2      32.770  74.156  16.114  1.00 35.99     0.257 C 
HETATM    6  O5  IDS C   2      33.267  74.856  14.948  1.00 39.00    -0.340 OA
ENDROOT
BRANCH   4   7
HETATM    7  O4  IDS C   2      34.485  74.710  17.767  1.00 35.98    -0.348 OA
BRANCH   7   8
HETATM    8  C1  SGN C   3      34.836  75.092  19.069  1.00 35.40     0.287 C 
HETATM    9  C2  SGN C   3      36.367  75.161  19.206  1.00 33.71     0.182 C 
HETATM   10  C3  SGN C   3      37.013  73.771  19.237  1.00 35.79     0.178 C 
HETATM   11  C4  SGN C   3      36.280  72.817  20.196  1.00 36.62     0.186 C 
HETATM   12  C5  SGN C   3      34.780  72.865  19.936  1.00 39.32     0.181 C 
HETATM   13  O5  SGN C   3      34.301  74.217  20.047  1.00 37.58    -0.349 OA
BRANCH   9  14
HETATM   14  N2  SGN C   3      36.918  75.906  18.096  1.00 29.28    -0.289 N 
ATOM     15  H2  SGN C   3      36.797  75.587  17.135  1.00  0.00     0.175 HD
BRANCH  14  16
HETATM   16  S1  SGN C   3      37.751  77.291  18.440  1.00 27.84     0.205 S 
HETATM   17  O1S SGN C   3      37.945  77.928  17.151  1.00 27.65    -0.578 OA
HETATM   18  O2S SGN C   3      39.031  76.835  19.058  1.00 27.72    -0.578 OA
HETATM   19  O3S SGN C   3      36.946  78.135  19.378  1.00 28.50    -0.578 OA
ENDBRANCH  14  16
ENDBRANCH   9  14
BRANCH  10  20
HETATM   20  O3  SGN C   3      38.382  73.891  19.617  1.00 34.89    -0.391 OA
ATOM     21  H3  SGN C   3      38.450  74.448  20.384  1.00  0.00     0.210 HD
ENDBRANCH  10  20
BRANCH  11  22
HETATM   22  O4  SGN C   3      36.741  71.473  19.970  1.00 37.13    -0.348 OA
BRANCH  22  23
HETATM   23  C1  UAP C   4      36.748  71.063  18.646  1.00 39.64     0.294 C 
HETATM   24  C2  UAP C   4      38.081  70.422  18.305  1.00 38.70     0.228 C 
HETATM   25  C3  UAP C   4      38.124  70.059  16.823  1.00 38.51     0.156 C 
HETATM   26  C4  UAP C   4      36.764  69.423  16.273  1.00 38.14     0.077 C 
HETATM   27  C5  UAP C   4      35.680  69.499  17.160  1.00 38.51     0.228 C 
HETATM   28  O5  UAP C   4      35.715  70.100  18.486  1.00 37.46    -0.343 OA
BRANCH  24  29
HETATM   29  O2  UAP C   4      39.172  71.367  18.552  1.00 40.54    -0.244 OA
BRANCH  29  30
HETATM   30  S   UAP C   4      40.412  70.970  19.483  1.00 40.49     0.252 S 
HETATM   31  O1S UAP C   4      41.317  70.150  18.664  1.00 40.89    -0.572 OA
HETATM   32  O2S UAP C   4      39.866  70.209  20.616  1.00 37.88    -0.572 OA
HETATM   33  O3S UAP C   4      41.047  72.225  19.915  1.00 37.47    -0.572 OA
ENDBRANCH  29  30
ENDBRANCH  24  29
BRANCH  25  34
HETATM   34  O3  UAP C   4      39.190  69.150  16.600  1.00 38.58    -0.393 OA
ATOM     35  H3  UAP C   4      39.293  69.017  15.665  1.00  0.00     0.210 HD
ENDBRANCH  25  34
BRANCH  27  36
HETATM   36  C6  UAP C   4      34.343  68.925  16.841  1.00 37.96     0.203 C 
HETATM   37  O6A UAP C   4      33.643  68.506  17.784  1.00 40.05    -0.646 OA
HETATM   38  O6B UAP C   4      33.986  68.888  15.645  1.00 36.71    -0.646 OA
ENDBRANCH  27  36
ENDBRANCH  22  23
ENDBRANCH  11  22
BRANCH  12  39
HETATM   39  C6  SGN C   3      33.963  72.028  20.880  1.00 42.65     0.227 C 
BRANCH  39  40
HETATM   40  O6  SGN C   3      32.689  72.699  20.995  1.00 51.09    -0.254 OA
BRANCH  40  41
HETATM   41  S2  SGN C   3      31.446  71.980  20.299  1.00 54.80     0.251 S 
HETATM   42  O4S SGN C   3      31.914  70.677  19.795  1.00 54.99    -0.572 OA
HETATM   43  O5S SGN C   3      31.001  72.876  19.190  1.00 53.99    -0.572 OA
HETATM   44  O6S SGN C   3      30.420  71.826  21.322  1.00 55.43    -0.572 OA
ENDBRANCH  40  41
ENDBRANCH  39  40
ENDBRANCH  12  39
ENDBRANCH   7   8
ENDBRANCH   4   7
BRANCH   3  45
HETATM   45  O3  IDS C   2      32.358  77.079  18.279  1.00 39.65    -0.390 OA
ATOM     46  H3  IDS C   2      31.486  76.739  18.440  1.00  0.00     0.210 HD
ENDBRANCH   3  45
BRANCH   5  47
HETATM   47  C6  IDS C   2      33.326  72.739  16.080  1.00 36.10     0.206 C 
HETATM   48  O6A IDS C   2      32.782  71.885  16.815  1.00 32.44    -0.646 OA
HETATM   49  O6B IDS C   2      34.285  72.493  15.310  1.00 33.44    -0.646 OA
ENDBRANCH   5  47
BRANCH   2  50
HETATM   50  O2  IDS C   2      31.800  78.123  15.753  1.00 43.59    -0.244 OA
BRANCH  50  51
HETATM   51  S   IDS C   2      30.375  78.793  16.013  1.00 44.11     0.252 S 
HETATM   52  O1S IDS C   2      29.735  78.030  17.138  1.00 44.48    -0.572 OA
HETATM   53  O2S IDS C   2      29.606  78.680  14.756  1.00 44.29    -0.572 OA
HETATM   54  O3S IDS C   2      30.620  80.179  16.371  1.00 44.74    -0.572 OA
ENDBRANCH  50  51
ENDBRANCH   2  50
BRANCH   1  55
HETATM   55  O4  SGN C   1      31.493  75.754  13.793  1.00 44.73    -0.348 OA
BRANCH  55  56
HETATM   56  C4  SGN C   1      31.668  76.072  12.395  1.00 48.25     0.186 C 
HETATM   57  C3  SGN C   1      32.514  77.343  12.253  1.00 48.43     0.178 C 
HETATM   58  C2  SGN C   1      32.834  77.598  10.781  1.00 48.58     0.181 C 
HETATM   59  C1  SGN C   1      33.464  76.372  10.122  1.00 50.40     0.283 C 
HETATM   60  O5  SGN C   1      32.616  75.230  10.294  1.00 50.82    -0.349 OA
HETATM   61  C5  SGN C   1      32.379  74.907  11.684  1.00 51.58     0.181 C 
BRANCH  57  62
HETATM   62  O3  SGN C   1      31.808  78.455  12.779  1.00 46.09    -0.391 OA
ATOM     63  H3  SGN C   1      30.892  78.390  12.534  1.00  0.00     0.210 HD
ENDBRANCH  57  62
BRANCH  58  64
HETATM   64  N2  SGN C   1      33.724  78.733  10.646  1.00 48.56    -0.289 N 
ATOM     65  H2  SGN C   1      34.663  78.747  11.044  1.00  0.00     0.175 HD
BRANCH  64  66
HETATM   66  S1  SGN C   1      33.093  80.005   9.797  1.00 47.67     0.205 S 
HETATM   67  O1S SGN C   1      31.719  80.216  10.305  1.00 47.59    -0.578 OA
HETATM   68  O2S SGN C   1      33.112  79.584   8.392  1.00 48.55    -0.578 OA
HETATM   69  O3S SGN C   1      33.974  81.165  10.054  1.00 47.08    -0.578 OA
ENDBRANCH  64  66
ENDBRANCH  58  64
BRANCH  59  70
HETATM   70  O1  SGN C   1      34.694  76.104  10.703  1.00 51.36    -0.369 OA
ATOM     71  H1  SGN C   1      34.834  76.681  11.444  1.00  0.00     0.212 HD
ENDBRANCH  59  70
BRANCH  61  72
HETATM   72  C6  SGN C   1      31.568  73.635  11.699  1.00 55.48     0.227 C 
BRANCH  72  73
HETATM   73  O6  SGN C   1      32.142  72.708  12.646  1.00 61.59    -0.254 OA
BRANCH  73  74
HETATM   74  S2  SGN C   1      31.213  71.472  13.031  1.00 65.98     0.251 S 
HETATM   75  O4S SGN C   1      30.404  71.882  14.263  1.00 65.09    -0.572 OA
HETATM   76  O5S SGN C   1      32.102  70.359  13.313  1.00 65.58    -0.572 OA
HETATM   77  O6S SGN C   1      30.296  71.185  11.800  1.00 65.84    -0.572 OA
ENDBRANCH  73  74
ENDBRANCH  72  73
ENDBRANCH  61  72
ENDBRANCH  55  56
ENDBRANCH   1  55
TORSDOF 27
ENDMDL
MODEL 72
REMARK VINA RESULT:      -5.2      5.507     10.313
REMARK  27 active torsions:
REMARK  status: ('A' for Active; 'I' for Inactive)
REMARK    1  A    between atoms: C1_1  and  O1_2 
REMARK    2  A    between atoms: S1_5  and  N2_7 
REMARK    3  A    between atoms: C2_6  and  N2_7 
REMARK    4  A    between atoms: S2_10  and  O6_22 
REMARK    5  A    between atoms: C3_11  and  O3_12 
REMARK    6  A    between atoms: C4_15  and  O4_16 
REMARK    7  A    between atoms: O4_16  and  C1_24 
REMARK    8  A    between atoms: C5_18  and  C6_21 
REMARK    9  A    between atoms: C6_21  and  O6_22 
REMARK   10  A    between atoms: C2_26  and  O2_27 
REMARK   11  A    between atoms: O2_27  and  S_40 
REMARK   12  A    between atoms: C3_29  and  O3_30 
REMARK   13  A    between atoms: C4_33  and  O4_34 
REMARK   14  A    between atoms: O4_34  and  C1_41 
REMARK   15  A    between atoms: C5_35  and  C6_37 
REMARK   16  A    between atoms: S1_43  and  N2_45 
REMARK   17  A    between atoms: C2_44  and  N2_45 
REMARK   18  A    between atoms: S2_48  and  O6_60 
REMARK   19  A    between atoms: C3_49  and  O3_50 
REMARK   20  A    between atoms: C4_53  and  O4_54 
REMARK   21  A    between atoms: O4_54  and  C1_62 
REMARK   22  A    between atoms: C5_56  and  C6_59 
REMARK   23  A    between atoms: C6_59  and  O6_60 
REMARK   24  A    between atoms: C2_64  and  O2_65 
REMARK   25  A    between atoms: O2_65  and  S_77 
REMARK   26  A    between atoms: C3_67  and  O3_68 
REMARK   27  A    between atoms: C5_72  and  C6_74 
ROOT
HETATM    1  C1  IDS C   2      30.769  70.774  11.441  1.00 40.81     0.294 C 
HETATM    2  C2  IDS C   2      29.912  72.023  11.661  1.00 40.20     0.231 C 
HETATM    3  C3  IDS C   2      30.638  73.038  12.540  1.00 39.01     0.185 C 
HETATM    4  C4  IDS C   2      30.964  72.439  13.923  1.00 37.65     0.195 C 
HETATM    5  C5  IDS C   2      30.952  70.907  13.843  1.00 35.99     0.257 C 
HETATM    6  O5  IDS C   2      31.570  70.479  12.606  1.00 39.00    -0.340 OA
ENDROOT
BRANCH   4   7
HETATM    7  O4  IDS C   2      32.265  72.903  14.364  1.00 35.98    -0.348 OA
BRANCH   7   8
HETATM    8  C1  SGN C   3      32.305  74.191  14.917  1.00 35.40     0.287 C 
HETATM    9  C2  SGN C   3      33.759  74.693  14.983  1.00 33.71     0.182 C 
HETATM   10  C3  SGN C   3      34.568  73.991  16.081  1.00 35.79     0.178 C 
HETATM   11  C4  SGN C   3      33.799  73.931  17.412  1.00 36.62     0.186 C 
HETATM   12  C5  SGN C   3      32.384  73.419  17.177  1.00 39.32     0.181 C 
HETATM   13  O5  SGN C   3      31.716  74.241  16.203  1.00 37.58    -0.349 OA
BRANCH   9  14
HETATM   14  N2  SGN C   3      34.407  74.466  13.711  1.00 29.28    -0.289 N 
ATOM     15  H2  SGN C   3      34.239  73.613  13.177  1.00  0.00     0.175 HD
BRANCH  14  16
HETATM   16  S1  SGN C   3      35.430  75.637  13.153  1.00 27.84     0.205 S 
HETATM   17  O1S SGN C   3      36.757  75.077  13.331  1.00 27.65    -0.578 OA
HETATM   18  O2S SGN C   3      35.182  76.822  14.025  1.00 27.72    -0.578 OA
HETATM   19  O3S SGN C   3      35.121  75.924  11.716  1.00 28.50    -0.578 OA
ENDBRANCH  14  16
ENDBRANCH   9  14
BRANCH  10  20
HETATM   20  O3  SGN C   3      35.809  74.667  16.262  1.00 34.89    -0.391 OA
ATOM     21  H3  SGN C   3      35.665  75.466  16.756  1.00  0.00     0.210 HD
ENDBRANCH  10  20
BRANCH  11  22
HETATM   22  O4  SGN C   3      34.471  73.026  18.306  1.00 37.13    -0.348 OA
BRANCH  22  23
HETATM   23  C1  UAP C   4      34.885  71.831  17.738  1.00 39.64     0.294 C 
HETATM   24  C2  UAP C   4      36.341  71.567  18.080  1.00 38.70     0.228 C 
HETATM   25  C3  UAP C   4      36.823  70.302  17.376  1.00 38.51     0.156 C 
HETATM   26  C4  UAP C   4      35.765  69.105  17.398  1.00 38.14     0.077 C 
HETATM   27  C5  UAP C   4      34.487  69.460  17.855  1.00 38.51     0.228 C 
HETATM   28  O5  UAP C   4      34.084  70.791  18.284  1.00 37.46    -0.343 OA
BRANCH  24  29
HETATM   29  O2  UAP C   4      37.176  72.673  17.610  1.00 40.54    -0.244 OA
BRANCH  29  30
HETATM   30  S   UAP C   4      38.163  73.444  18.608  1.00 40.49     0.252 S 
HETATM   31  O1S UAP C   4      38.429  74.763  18.013  1.00 40.89    -0.572 OA
HETATM   32  O2S UAP C   4      39.387  72.636  18.703  1.00 37.88    -0.572 OA
HETATM   33  O3S UAP C   4      37.470  73.554  19.901  1.00 37.47    -0.572 OA
ENDBRANCH  29  30
ENDBRANCH  24  29
BRANCH  25  34
HETATM   34  O3  UAP C   4      38.033  69.870  17.979  1.00 38.58    -0.393 OA
ATOM     35  H3  UAP C   4      38.008  68.926  18.079  1.00  0.00     0.210 HD
ENDBRANCH  25  34
BRANCH  27  36
HETATM   36  C6  UAP C   4      33.380  68.471  17.984  1.00 37.96     0.203 C 
HETATM   37  O6A UAP C   4      32.463  68.718  18.792  1.00 40.05    -0.646 OA
HETATM   38  O6B UAP C   4      33.423  67.440  17.280  1.00 36.71    -0.646 OA
ENDBRANCH  27  36
ENDBRANCH  22  23
ENDBRANCH  11  22
BRANCH  12  39
HETATM   39  C6  SGN C   3      31.521  73.403  18.408  1.00 42.65     0.227 C 
BRANCH  39  40
HETATM   40  O6  SGN C   3      30.867  74.690  18.444  1.00 51.09    -0.254 OA
BRANCH  40  41
HETATM   41  S2  SGN C   3      31.425  75.738  19.510  1.00 54.80     0.251 S 
HETATM   42  O4S SGN C   3      32.196  74.981  20.512  1.00 54.99    -0.572 OA
HETATM   43  O5S SGN C   3      30.234  76.405  20.116  1.00 53.99    -0.572 OA
HETATM   44  O6S SGN C   3      32.265  76.678  18.779  1.00 55.43    -0.572 OA
ENDBRANCH  40  41
ENDBRANCH  39  40
ENDBRANCH  12  39
ENDBRANCH   7   8
ENDBRANCH   4   7
BRANCH   3  45
HETATM   45  O3  IDS C   2      29.828  74.196  12.695  1.00 39.65    -0.390 OA
ATOM     46  H3  IDS C   2      28.926  73.935  12.841  1.00  0.00     0.210 HD
ENDBRANCH   3  45
BRANCH   5  47
HETATM   47  C6  IDS C   2      31.660  70.198  14.989  1.00 36.10     0.206 C 
HETATM   48  O6A IDS C   2      32.769  69.670  14.748  1.00 32.44    -0.646 OA
HETATM   49  O6B IDS C   2      31.110  70.190  16.116  1.00 33.44    -0.646 OA
ENDBRANCH   5  47
BRANCH   2  50
HETATM   50  O2  IDS C   2      29.623  72.653  10.380  1.00 43.59    -0.244 OA
BRANCH  50  51
HETATM   51  S   IDS C   2      30.826  73.142   9.452  1.00 44.11     0.252 S 
HETATM   52  O1S IDS C   2      31.868  73.725  10.364  1.00 44.48    -0.572 OA
HETATM   53  O2S IDS C   2      30.275  74.148   8.521  1.00 44.29    -0.572 OA
HETATM   54  O3S IDS C   2      31.318  71.971   8.749  1.00 44.74    -0.572 OA
ENDBRANCH  50  51
ENDBRANCH   2  50
BRANCH   1  55
HETATM   55  O4  SGN C   1      29.945  69.687  11.183  1.00 44.73    -0.348 OA
BRANCH  55  56
HETATM   56  C4  SGN C   1      30.313  68.811  10.095  1.00 48.25     0.186 C 
HETATM   57  C3  SGN C   1      30.803  67.469  10.652  1.00 48.43     0.178 C 
HETATM   58  C2  SGN C   1      31.046  66.484   9.510  1.00 48.58     0.181 C 
HETATM   59  C1  SGN C   1      29.820  66.356   8.608  1.00 50.40     0.283 C 
HETATM   60  O5  SGN C   1      29.425  67.647   8.127  1.00 50.82    -0.349 OA
HETATM   61  C5  SGN C   1      29.093  68.569   9.190  1.00 51.58     0.181 C 
BRANCH  57  62
HETATM   62  O3  SGN C   1      32.011  67.657  11.374  1.00 46.09    -0.391 OA
ATOM     63  H3  SGN C   1      32.672  67.063  11.039  1.00  0.00     0.210 HD
ENDBRANCH  57  62
BRANCH  58  64
HETATM   64  N2  SGN C   1      31.404  65.182  10.033  1.00 48.56    -0.289 N 
ATOM     65  H2  SGN C   1      30.774  64.630  10.615  1.00  0.00     0.175 HD
BRANCH  64  66
HETATM   66  S1  SGN C   1      32.916  64.662   9.610  1.00 47.67     0.205 S 
HETATM   67  O1S SGN C   1      32.987  64.715   8.133  1.00 47.59    -0.578 OA
HETATM   68  O2S SGN C   1      33.018  63.294  10.127  1.00 48.55    -0.578 OA
HETATM   69  O3S SGN C   1      33.876  65.585  10.254  1.00 47.08    -0.578 OA
ENDBRANCH  64  66
ENDBRANCH  58  64
BRANCH  59  70
HETATM   70  O1  SGN C   1      28.765  65.807   9.322  1.00 51.36    -0.369 OA
ATOM     71  H1  SGN C   1      28.079  65.534   8.725  1.00  0.00     0.212 HD
ENDBRANCH  59  70
BRANCH  61  72
HETATM   72  C6  SGN C   1      28.601  69.832   8.528  1.00 55.48     0.227 C 
BRANCH  72  73
HETATM   73  O6  SGN C   1      28.219  69.545   7.165  1.00 61.59    -0.254 OA
BRANCH  73  74
HETATM   74  S2  SGN C   1      28.880  70.489   6.065  1.00 65.98     0.251 S 
HETATM   75  O4S SGN C   1      28.233  70.139   4.722  1.00 65.09    -0.572 OA
HETATM   76  O5S SGN C   1      30.302  70.200   6.071  1.00 65.58    -0.572 OA
HETATM   77  O6S SGN C   1      28.585  71.963   6.486  1.00 65.84    -0.572 OA
ENDBRANCH  73  74
ENDBRANCH  72  73
ENDBRANCH  61  72
ENDBRANCH  55  56
ENDBRANCH   1  55
TORSDOF 27
ENDMDL
MODEL 73
REMARK VINA RESULT:      -5.2      7.006     12.285
REMARK  27 active torsions:
REMARK  status: ('A' for Active; 'I' for Inactive)
REMARK    1  A    between atoms: C1_1  and  O1_2 
REMARK    2  A    between atoms: S1_5  and  N2_7 
REMARK    3  A    between atoms: C2_6  and  N2_7 
REMARK    4  A    between atoms: S2_10  and  O6_22 
REMARK    5  A    between atoms: C3_11  and  O3_12 
REMARK    6  A    between atoms: C4_15  and  O4_16 
REMARK    7  A    between atoms: O4_16  and  C1_24 
REMARK    8  A    between atoms: C5_18  and  C6_21 
REMARK    9  A    between atoms: C6_21  and  O6_22 
REMARK   10  A    between atoms: C2_26  and  O2_27 
REMARK   11  A    between atoms: O2_27  and  S_40 
REMARK   12  A    between atoms: C3_29  and  O3_30 
REMARK   13  A    between atoms: C4_33  and  O4_34 
REMARK   14  A    between atoms: O4_34  and  C1_41 
REMARK   15  A    between atoms: C5_35  and  C6_37 
REMARK   16  A    between atoms: S1_43  and  N2_45 
REMARK   17  A    between atoms: C2_44  and  N2_45 
REMARK   18  A    between atoms: S2_48  and  O6_60 
REMARK   19  A    between atoms: C3_49  and  O3_50 
REMARK   20  A    between atoms: C4_53  and  O4_54 
REMARK   21  A    between atoms: O4_54  and  C1_62 
REMARK   22  A    between atoms: C5_56  and  C6_59 
REMARK   23  A    between atoms: C6_59  and  O6_60 
REMARK   24  A    between atoms: C2_64  and  O2_65 
REMARK   25  A    between atoms: O2_65  and  S_77 
REMARK   26  A    between atoms: C3_67  and  O3_68 
REMARK   27  A    between atoms: C5_72  and  C6_74 
ROOT
HETATM    1  C1  IDS C   2      31.855  72.153  13.948  1.00 40.81     0.294 C 
HETATM    2  C2  IDS C   2      31.055  72.964  12.926  1.00 40.20     0.231 C 
HETATM    3  C3  IDS C   2      30.398  72.051  11.895  1.00 39.01     0.185 C 
HETATM    4  C4  IDS C   2      31.455  71.234  11.126  1.00 37.65     0.195 C 
HETATM    5  C5  IDS C   2      32.756  71.171  11.937  1.00 35.99     0.257 C 
HETATM    6  O5  IDS C   2      32.447  70.985  13.339  1.00 39.00    -0.340 OA
ENDROOT
BRANCH   4   7
HETATM    7  O4  IDS C   2      30.959  69.894  10.881  1.00 35.98    -0.348 OA
BRANCH   7   8
HETATM    8  C1  SGN C   3      29.674  69.805  10.326  1.00 35.40     0.287 C 
HETATM    9  C2  SGN C   3      29.376  68.353   9.913  1.00 33.71     0.182 C 
HETATM   10  C3  SGN C   3      30.152  67.933   8.660  1.00 35.79     0.178 C 
HETATM   11  C4  SGN C   3      30.069  68.994   7.549  1.00 36.62     0.186 C 
HETATM   12  C5  SGN C   3      30.388  70.372   8.117  1.00 39.32     0.181 C 
HETATM   13  O5  SGN C   3      29.508  70.669   9.216  1.00 37.58    -0.349 OA
BRANCH   9  14
HETATM   14  N2  SGN C   3      29.724  67.461  10.997  1.00 29.28    -0.289 N 
ATOM     15  H2  SGN C   3      30.448  67.707  11.671  1.00  0.00     0.175 HD
BRANCH  14  16
HETATM   16  S1  SGN C   3      28.906  66.029  11.104  1.00 27.84     0.205 S 
HETATM   17  O1S SGN C   3      28.574  65.903  12.511  1.00 27.65    -0.578 OA
HETATM   18  O2S SGN C   3      29.874  64.990  10.644  1.00 27.72    -0.578 OA
HETATM   19  O3S SGN C   3      27.689  66.085  10.234  1.00 28.50    -0.578 OA
ENDBRANCH  14  16
ENDBRANCH   9  14
BRANCH  10  20
HETATM   20  O3  SGN C   3      29.649  66.687   8.184  1.00 34.89    -0.391 OA
ATOM     21  H3  SGN C   3      28.699  66.717   8.161  1.00  0.00     0.210 HD
ENDBRANCH  10  20
BRANCH  11  22
HETATM   22  O4  SGN C   3      31.034  68.686   6.528  1.00 37.13    -0.348 OA
BRANCH  22  23
HETATM   23  C1  UAP C   4      32.316  68.421   6.983  1.00 39.64     0.294 C 
HETATM   24  C2  UAP C   4      32.850  67.157   6.333  1.00 38.70     0.228 C 
HETATM   25  C3  UAP C   4      34.221  66.812   6.907  1.00 38.51     0.156 C 
HETATM   26  C4  UAP C   4      35.178  68.078   7.105  1.00 38.14     0.077 C 
HETATM   27  C5  UAP C   4      34.548  69.320   6.938  1.00 38.51     0.228 C 
HETATM   28  O5  UAP C   4      33.142  69.517   6.616  1.00 37.46    -0.343 OA
BRANCH  24  29
HETATM   29  O2  UAP C   4      31.962  66.029   6.620  1.00 40.54    -0.244 OA
BRANCH  29  30
HETATM   30  S   UAP C   4      31.389  65.109   5.442  1.00 40.49     0.252 S 
HETATM   31  O1S UAP C   4      30.134  64.519   5.930  1.00 40.89    -0.572 OA
HETATM   32  O2S UAP C   4      32.405  64.080   5.175  1.00 37.88    -0.572 OA
HETATM   33  O3S UAP C   4      31.170  65.983   4.278  1.00 37.47    -0.572 OA
ENDBRANCH  29  30
ENDBRANCH  24  29
BRANCH  25  34
HETATM   34  O3  UAP C   4      34.856  65.873   6.053  1.00 38.58    -0.393 OA
ATOM     35  H3  UAP C   4      34.916  65.038   6.502  1.00  0.00     0.210 HD
ENDBRANCH  25  34
BRANCH  27  36
HETATM   36  C6  UAP C   4      35.285  70.610   7.043  1.00 37.96     0.203 C 
HETATM   37  O6A UAP C   4      36.487  70.577   7.373  1.00 40.05    -0.646 OA
HETATM   38  O6B UAP C   4      34.664  71.667   6.799  1.00 36.71    -0.646 OA
ENDBRANCH  27  36
ENDBRANCH  22  23
ENDBRANCH  11  22
BRANCH  12  39
HETATM   39  C6  SGN C   3      30.251  71.494   7.126  1.00 42.65     0.227 C 
BRANCH  39  40
HETATM   40  O6  SGN C   3      31.341  72.399   7.410  1.00 51.09    -0.254 OA
BRANCH  40  41
HETATM   41  S2  SGN C   3      30.936  73.858   7.916  1.00 54.80     0.251 S 
HETATM   42  O4S SGN C   3      31.676  74.112   9.165  1.00 54.99    -0.572 OA
HETATM   43  O5S SGN C   3      29.460  73.837   8.141  1.00 53.99    -0.572 OA
HETATM   44  O6S SGN C   3      31.315  74.791   6.864  1.00 55.43    -0.572 OA
ENDBRANCH  40  41
ENDBRANCH  39  40
ENDBRANCH  12  39
ENDBRANCH   7   8
ENDBRANCH   4   7
BRANCH   3  45
HETATM   45  O3  IDS C   2      29.638  72.834  10.984  1.00 39.65    -0.390 OA
ATOM     46  H3  IDS C   2      30.211  73.445  10.537  1.00  0.00     0.210 HD
ENDBRANCH   3  45
BRANCH   5  47
HETATM   47  C6  IDS C   2      33.721  70.070  11.521  1.00 36.10     0.206 C 
HETATM   48  O6A IDS C   2      33.946  69.155  12.344  1.00 32.44    -0.646 OA
HETATM   49  O6B IDS C   2      34.229  70.124  10.375  1.00 33.44    -0.646 OA
ENDBRANCH   5  47
BRANCH   2  50
HETATM   50  O2  IDS C   2      30.006  73.713  13.606  1.00 43.59    -0.244 OA
BRANCH  50  51
HETATM   51  S   IDS C   2      30.099  75.305  13.686  1.00 44.11     0.252 S 
HETATM   52  O1S IDS C   2      30.842  75.633  14.950  1.00 44.48    -0.572 OA
HETATM   53  O2S IDS C   2      28.714  75.820  13.704  1.00 44.29    -0.572 OA
HETATM   54  O3S IDS C   2      30.821  75.745  12.505  1.00 44.74    -0.572 OA
ENDBRANCH  50  51
ENDBRANCH   2  50
BRANCH   1  55
HETATM   55  O4  SGN C   1      32.870  72.941  14.473  1.00 44.73    -0.348 OA
BRANCH  55  56
HETATM   56  C4  SGN C   1      33.362  72.610  15.789  1.00 48.25     0.186 C 
HETATM   57  C3  SGN C   1      32.184  72.308  16.723  1.00 48.43     0.178 C 
HETATM   58  C2  SGN C   1      32.699  71.807  18.072  1.00 48.58     0.181 C 
HETATM   59  C1  SGN C   1      33.660  70.631  17.905  1.00 50.40     0.283 C 
HETATM   60  O5  SGN C   1      34.731  70.991  17.024  1.00 50.82    -0.349 OA
HETATM   61  C5  SGN C   1      34.274  71.374  15.706  1.00 51.58     0.181 C 
BRANCH  57  62
HETATM   62  O3  SGN C   1      31.412  73.481  16.923  1.00 46.09    -0.391 OA
ATOM     63  H3  SGN C   1      30.835  73.354  17.668  1.00  0.00     0.210 HD
ENDBRANCH  57  62
BRANCH  58  64
HETATM   64  N2  SGN C   1      31.594  71.415  18.922  1.00 48.56    -0.289 N 
ATOM     65  H2  SGN C   1      30.799  70.876  18.578  1.00  0.00     0.175 HD
BRANCH  64  66
HETATM   66  S1  SGN C   1      31.724  71.912  20.494  1.00 47.67     0.205 S 
HETATM   67  O1S SGN C   1      30.360  71.880  21.065  1.00 47.59    -0.578 OA
HETATM   68  O2S SGN C   1      32.273  73.271  20.429  1.00 48.55    -0.578 OA
HETATM   69  O3S SGN C   1      32.639  70.962  21.164  1.00 47.08    -0.578 OA
ENDBRANCH  64  66
ENDBRANCH  58  64
BRANCH  59  70
HETATM   70  O1  SGN C   1      32.987  69.545  17.365  1.00 51.36    -0.369 OA
ATOM     71  H1  SGN C   1      33.124  68.778  17.908  1.00  0.00     0.212 HD
ENDBRANCH  59  70
BRANCH  61  72
HETATM   72  C6  SGN C   1      35.509  71.617  14.875  1.00 55.48     0.227 C 
BRANCH  72  73
HETATM   73  O6  SGN C   1      36.192  70.365  14.648  1.00 61.59    -0.254 OA
BRANCH  73  74
HETATM   74  S2  SGN C   1      37.737  70.358  15.036  1.00 65.98     0.251 S 
HETATM   75  O4S SGN C   1      37.993  69.087  15.849  1.00 65.09    -0.572 OA
HETATM   76  O5S SGN C   1      37.973  71.557  15.820  1.00 65.58    -0.572 OA
HETATM   77  O6S SGN C   1      38.547  70.368  13.701  1.00 65.84    -0.572 OA
ENDBRANCH  73  74
ENDBRANCH  72  73
ENDBRANCH  61  72
ENDBRANCH  55  56
ENDBRANCH   1  55
TORSDOF 27
ENDMDL
MODEL 74
REMARK VINA RESULT:      -5.2      6.869     11.623
REMARK  27 active torsions:
REMARK  status: ('A' for Active; 'I' for Inactive)
REMARK    1  A    between atoms: C1_1  and  O1_2 
REMARK    2  A    between atoms: S1_5  and  N2_7 
REMARK    3  A    between atoms: C2_6  and  N2_7 
REMARK    4  A    between atoms: S2_10  and  O6_22 
REMARK    5  A    between atoms: C3_11  and  O3_12 
REMARK    6  A    between atoms: C4_15  and  O4_16 
REMARK    7  A    between atoms: O4_16  and  C1_24 
REMARK    8  A    between atoms: C5_18  and  C6_21 
REMARK    9  A    between atoms: C6_21  and  O6_22 
REMARK   10  A    between atoms: C2_26  and  O2_27 
REMARK   11  A    between atoms: O2_27  and  S_40 
REMARK   12  A    between atoms: C3_29  and  O3_30 
REMARK   13  A    between atoms: C4_33  and  O4_34 
REMARK   14  A    between atoms: O4_34  and  C1_41 
REMARK   15  A    between atoms: C5_35  and  C6_37 
REMARK   16  A    between atoms: S1_43  and  N2_45 
REMARK   17  A    between atoms: C2_44  and  N2_45 
REMARK   18  A    between atoms: S2_48  and  O6_60 
REMARK   19  A    between atoms: C3_49  and  O3_50 
REMARK   20  A    between atoms: C4_53  and  O4_54 
REMARK   21  A    between atoms: O4_54  and  C1_62 
REMARK   22  A    between atoms: C5_56  and  C6_59 
REMARK   23  A    between atoms: C6_59  and  O6_60 
REMARK   24  A    between atoms: C2_64  and  O2_65 
REMARK   25  A    between atoms: O2_65  and  S_77 
REMARK   26  A    between atoms: C3_67  and  O3_68 
REMARK   27  A    between atoms: C5_72  and  C6_74 
ROOT
HETATM    1  C1  IDS C   2      31.520  72.400  14.859  1.00 40.81     0.294 C 
HETATM    2  C2  IDS C   2      31.009  73.143  13.622  1.00 40.20     0.231 C 
HETATM    3  C3  IDS C   2      30.518  72.164  12.559  1.00 39.01     0.185 C 
HETATM    4  C4  IDS C   2      31.652  71.222  12.108  1.00 37.65     0.195 C 
HETATM    5  C5  IDS C   2      32.748  71.177  13.180  1.00 35.99     0.257 C 
HETATM    6  O5  IDS C   2      32.143  71.148  14.495  1.00 39.00    -0.340 OA
ENDROOT
BRANCH   4   7
HETATM    7  O4  IDS C   2      31.124  69.891  11.882  1.00 35.98    -0.348 OA
BRANCH   7   8
HETATM    8  C1  SGN C   3      30.126  69.782  10.903  1.00 35.40     0.287 C 
HETATM    9  C2  SGN C   3      30.021  68.327  10.413  1.00 33.71     0.182 C 
HETATM   10  C3  SGN C   3      31.204  67.926   9.523  1.00 35.79     0.178 C 
HETATM   11  C4  SGN C   3      31.506  68.990   8.454  1.00 36.62     0.186 C 
HETATM   12  C5  SGN C   3      31.575  70.370   9.096  1.00 39.32     0.181 C 
HETATM   13  O5  SGN C   3      30.355  70.648   9.805  1.00 37.58    -0.349 OA
BRANCH   9  14
HETATM   14  N2  SGN C   3      29.973  67.436  11.551  1.00 29.28    -0.289 N 
ATOM     15  H2  SGN C   3      30.463  67.660  12.417  1.00  0.00     0.175 HD
BRANCH  14  16
HETATM   16  S1  SGN C   3      29.096  66.045  11.399  1.00 27.84     0.205 S 
HETATM   17  O1S SGN C   3      30.081  65.025  11.091  1.00 27.65    -0.578 OA
HETATM   18  O2S SGN C   3      28.154  66.297  10.268  1.00 27.72    -0.578 OA
HETATM   19  O3S SGN C   3      28.372  65.770  12.680  1.00 28.50    -0.578 OA
ENDBRANCH  14  16
ENDBRANCH   9  14
BRANCH  10  20
HETATM   20  O3  SGN C   3      30.927  66.673   8.901  1.00 34.89    -0.391 OA
ATOM     21  H3  SGN C   3      30.092  66.343   9.212  1.00  0.00     0.210 HD
ENDBRANCH  10  20
BRANCH  11  22
HETATM   22  O4  SGN C   3      32.779  68.703   7.848  1.00 37.13    -0.348 OA
BRANCH  22  23
HETATM   23  C1  UAP C   4      32.727  68.286   6.527  1.00 39.64     0.294 C 
HETATM   24  C2  UAP C   4      33.840  67.292   6.249  1.00 38.70     0.228 C 
HETATM   25  C3  UAP C   4      33.841  66.909   4.772  1.00 38.51     0.156 C 
HETATM   26  C4  UAP C   4      32.383  66.671   4.163  1.00 38.14     0.077 C 
HETATM   27  C5  UAP C   4      31.327  67.062   4.999  1.00 38.51     0.228 C 
HETATM   28  O5  UAP C   4      31.472  67.649   6.324  1.00 37.46    -0.343 OA
BRANCH  24  29
HETATM   29  O2  UAP C   4      35.140  67.897   6.543  1.00 40.54    -0.244 OA
BRANCH  29  30
HETATM   30  S   UAP C   4      36.367  67.007   7.057  1.00 40.49     0.252 S 
HETATM   31  O1S UAP C   4      37.016  67.758   8.141  1.00 40.89    -0.572 OA
HETATM   32  O2S UAP C   4      37.267  66.822   5.910  1.00 37.88    -0.572 OA
HETATM   33  O3S UAP C   4      35.807  65.731   7.531  1.00 37.47    -0.572 OA
ENDBRANCH  29  30
ENDBRANCH  24  29
BRANCH  25  34
HETATM   34  O3  UAP C   4      34.618  65.734   4.601  1.00 38.58    -0.393 OA
ATOM     35  H3  UAP C   4      34.286  65.057   5.178  1.00  0.00     0.210 HD
ENDBRANCH  25  34
BRANCH  27  36
HETATM   36  C6  UAP C   4      29.898  66.881   4.622  1.00 37.96     0.203 C 
HETATM   37  O6A UAP C   4      29.133  67.861   4.726  1.00 40.05    -0.646 OA
HETATM   38  O6B UAP C   4      29.529  65.757   4.221  1.00 36.71    -0.646 OA
ENDBRANCH  27  36
ENDBRANCH  22  23
ENDBRANCH  11  22
BRANCH  12  39
HETATM   39  C6  SGN C   3      31.784  71.495   8.120  1.00 42.65     0.227 C 
BRANCH  39  40
HETATM   40  O6  SGN C   3      31.178  72.656   8.727  1.00 51.09    -0.254 OA
BRANCH  40  41
HETATM   41  S2  SGN C   3      30.233  73.534   7.787  1.00 54.80     0.251 S 
HETATM   42  O4S SGN C   3      28.926  72.856   7.718  1.00 54.99    -0.572 OA
HETATM   43  O5S SGN C   3      30.898  73.595   6.451  1.00 53.99    -0.572 OA
HETATM   44  O6S SGN C   3      30.127  74.849   8.405  1.00 55.43    -0.572 OA
ENDBRANCH  40  41
ENDBRANCH  39  40
ENDBRANCH  12  39
ENDBRANCH   7   8
ENDBRANCH   4   7
BRANCH   3  45
HETATM   45  O3  IDS C   2      30.020  72.889  11.442  1.00 39.65    -0.390 OA
ATOM     46  H3  IDS C   2      29.104  73.097  11.581  1.00  0.00     0.210 HD
ENDBRANCH   3  45
BRANCH   5  47
HETATM   47  C6  IDS C   2      33.699  69.992  13.078  1.00 36.10     0.206 C 
HETATM   48  O6A IDS C   2      33.753  69.206  14.050  1.00 32.44    -0.646 OA
HETATM   49  O6B IDS C   2      34.366  69.853  12.025  1.00 33.44    -0.646 OA
ENDBRANCH   5  47
BRANCH   2  50
HETATM   50  O2  IDS C   2      29.897  74.008  13.994  1.00 43.59    -0.244 OA
BRANCH  50  51
HETATM   51  S   IDS C   2      30.000  75.580  13.733  1.00 44.11     0.252 S 
HETATM   52  O1S IDS C   2      28.598  76.119  13.773  1.00 44.48    -0.572 OA
HETATM   53  O2S IDS C   2      30.628  75.759  12.408  1.00 44.29    -0.572 OA
HETATM   54  O3S IDS C   2      30.821  76.130  14.797  1.00 44.74    -0.572 OA
ENDBRANCH  50  51
ENDBRANCH   2  50
BRANCH   1  55
HETATM   55  O4  SGN C   1      32.457  73.185  15.516  1.00 44.73    -0.348 OA
BRANCH  55  56
HETATM   56  C4  SGN C   1      32.816  72.812  16.864  1.00 48.25     0.186 C 
HETATM   57  C3  SGN C   1      34.302  72.440  16.922  1.00 48.43     0.178 C 
HETATM   58  C2  SGN C   1      34.726  72.195  18.369  1.00 48.58     0.181 C 
HETATM   59  C1  SGN C   1      34.359  73.374  19.269  1.00 50.40     0.283 C 
HETATM   60  O5  SGN C   1      32.959  73.658  19.163  1.00 50.82    -0.349 OA
HETATM   61  C5  SGN C   1      32.551  73.991  17.816  1.00 51.58     0.181 C 
BRANCH  57  62
HETATM   62  O3  SGN C   1      34.537  71.267  16.160  1.00 46.09    -0.391 OA
ATOM     63  H3  SGN C   1      35.473  71.114  16.099  1.00  0.00     0.210 HD
ENDBRANCH  57  62
BRANCH  58  64
HETATM   64  N2  SGN C   1      36.152  71.952  18.444  1.00 48.56    -0.289 N 
ATOM     65  H2  SGN C   1      36.845  72.638  18.145  1.00  0.00     0.175 HD
BRANCH  64  66
HETATM   66  S1  SGN C   1      36.566  70.470  19.054  1.00 47.67     0.205 S 
HETATM   67  O1S SGN C   1      38.030  70.336  18.888  1.00 47.59    -0.578 OA
HETATM   68  O2S SGN C   1      35.819  69.496  18.252  1.00 48.55    -0.578 OA
HETATM   69  O3S SGN C   1      36.156  70.468  20.475  1.00 47.08    -0.578 OA
ENDBRANCH  64  66
ENDBRANCH  58  64
BRANCH  59  70
HETATM   70  O1  SGN C   1      35.071  74.501  18.885  1.00 51.36    -0.369 OA
ATOM     71  H1  SGN C   1      34.594  74.970  18.211  1.00  0.00     0.212 HD
ENDBRANCH  59  70
BRANCH  61  72
HETATM   72  C6  SGN C   1      31.091  74.364  17.887  1.00 55.48     0.227 C 
BRANCH  72  73
HETATM   73  O6  SGN C   1      30.963  75.727  18.346  1.00 61.59    -0.254 OA
BRANCH  73  74
HETATM   74  S2  SGN C   1      30.331  75.895  19.800  1.00 65.98     0.251 S 
HETATM   75  O4S SGN C   1      29.248  76.972  19.699  1.00 65.09    -0.572 OA
HETATM   76  O5S SGN C   1      31.413  76.298  20.678  1.00 65.58    -0.572 OA
HETATM   77  O6S SGN C   1      29.738  74.509  20.206  1.00 65.84    -0.572 OA
ENDBRANCH  73  74
ENDBRANCH  72  73
ENDBRANCH  61  72
ENDBRANCH  55  56
ENDBRANCH   1  55
TORSDOF 27
ENDMDL
MODEL 75
REMARK VINA RESULT:      -5.1      4.724      8.444
REMARK  27 active torsions:
REMARK  status: ('A' for Active; 'I' for Inactive)
REMARK    1  A    between atoms: C1_1  and  O1_2 
REMARK    2  A    between atoms: S1_5  and  N2_7 
REMARK    3  A    between atoms: C2_6  and  N2_7 
REMARK    4  A    between atoms: S2_10  and  O6_22 
REMARK    5  A    between atoms: C3_11  and  O3_12 
REMARK    6  A    between atoms: C4_15  and  O4_16 
REMARK    7  A    between atoms: O4_16  and  C1_24 
REMARK    8  A    between atoms: C5_18  and  C6_21 
REMARK    9  A    between atoms: C6_21  and  O6_22 
REMARK   10  A    between atoms: C2_26  and  O2_27 
REMARK   11  A    between atoms: O2_27  and  S_40 
REMARK   12  A    between atoms: C3_29  and  O3_30 
REMARK   13  A    between atoms: C4_33  and  O4_34 
REMARK   14  A    between atoms: O4_34  and  C1_41 
REMARK   15  A    between atoms: C5_35  and  C6_37 
REMARK   16  A    between atoms: S1_43  and  N2_45 
REMARK   17  A    between atoms: C2_44  and  N2_45 
REMARK   18  A    between atoms: S2_48  and  O6_60 
REMARK   19  A    between atoms: C3_49  and  O3_50 
REMARK   20  A    between atoms: C4_53  and  O4_54 
REMARK   21  A    between atoms: O4_54  and  C1_62 
REMARK   22  A    between atoms: C5_56  and  C6_59 
REMARK   23  A    between atoms: C6_59  and  O6_60 
REMARK   24  A    between atoms: C2_64  and  O2_65 
REMARK   25  A    between atoms: O2_65  and  S_77 
REMARK   26  A    between atoms: C3_67  and  O3_68 
REMARK   27  A    between atoms: C5_72  and  C6_74 
ROOT
HETATM    1  C1  IDS C   2      32.411  73.355  12.357  1.00 40.81     0.294 C 
HETATM    2  C2  IDS C   2      32.425  74.664  13.150  1.00 40.20     0.231 C 
HETATM    3  C3  IDS C   2      33.514  74.647  14.218  1.00 39.01     0.185 C 
HETATM    4  C4  IDS C   2      33.291  73.493  15.216  1.00 37.65     0.195 C 
HETATM    5  C5  IDS C   2      32.396  72.420  14.581  1.00 35.99     0.257 C 
HETATM    6  O5  IDS C   2      32.769  72.234  13.195  1.00 39.00    -0.340 OA
ENDROOT
BRANCH   4   7
HETATM    7  O4  IDS C   2      34.566  72.916  15.594  1.00 35.98    -0.348 OA
BRANCH   7   8
HETATM    8  C1  SGN C   3      35.361  73.687  16.454  1.00 35.40     0.287 C 
HETATM    9  C2  SGN C   3      36.642  72.918  16.822  1.00 33.71     0.182 C 
HETATM   10  C3  SGN C   3      36.371  71.766  17.797  1.00 35.79     0.178 C 
HETATM   11  C4  SGN C   3      35.472  72.203  18.966  1.00 36.62     0.186 C 
HETATM   12  C5  SGN C   3      34.253  72.950  18.439  1.00 39.32     0.181 C 
HETATM   13  O5  SGN C   3      34.668  74.065  17.630  1.00 37.58    -0.349 OA
BRANCH   9  14
HETATM   14  N2  SGN C   3      37.244  72.380  15.622  1.00 29.28    -0.289 N 
ATOM     15  H2  SGN C   3      37.810  72.965  15.007  1.00  0.00     0.175 HD
BRANCH  14  16
HETATM   16  S1  SGN C   3      36.982  70.785  15.282  1.00 27.84     0.205 S 
HETATM   17  O1S SGN C   3      38.219  70.124  15.657  1.00 27.65    -0.578 OA
HETATM   18  O2S SGN C   3      36.723  70.734  13.813  1.00 27.72    -0.578 OA
HETATM   19  O3S SGN C   3      35.811  70.293  16.075  1.00 28.50    -0.578 OA
ENDBRANCH  14  16
ENDBRANCH   9  14
BRANCH  10  20
HETATM   20  O3  SGN C   3      37.608  71.262  18.293  1.00 34.89    -0.391 OA
ATOM     21  H3  SGN C   3      38.135  71.982  18.620  1.00  0.00     0.210 HD
ENDBRANCH  10  20
BRANCH  11  22
HETATM   22  O4  SGN C   3      35.022  71.036  19.677  1.00 37.13    -0.348 OA
BRANCH  22  23
HETATM   23  C1  UAP C   4      35.292  71.029  21.037  1.00 39.64     0.294 C 
HETATM   24  C2  UAP C   4      35.185  69.616  21.583  1.00 38.70     0.228 C 
HETATM   25  C3  UAP C   4      35.387  69.623  23.096  1.00 38.51     0.156 C 
HETATM   26  C4  UAP C   4      36.566  70.585  23.587  1.00 38.14     0.077 C 
HETATM   27  C5  UAP C   4      37.080  71.436  22.597  1.00 38.51     0.228 C 
HETATM   28  O5  UAP C   4      36.623  71.497  21.216  1.00 37.46    -0.343 OA
BRANCH  24  29
HETATM   29  O2  UAP C   4      33.848  69.078  21.325  1.00 40.54    -0.244 OA
BRANCH  29  30
HETATM   30  S   UAP C   4      33.625  67.513  21.070  1.00 40.49     0.252 S 
HETATM   31  O1S UAP C   4      32.843  67.389  19.831  1.00 40.89    -0.572 OA
HETATM   32  O2S UAP C   4      32.887  66.995  22.231  1.00 37.88    -0.572 OA
HETATM   33  O3S UAP C   4      34.957  66.901  20.944  1.00 37.47    -0.572 OA
ENDBRANCH  29  30
ENDBRANCH  24  29
BRANCH  25  34
HETATM   34  O3  UAP C   4      35.651  68.299  23.532  1.00 38.58    -0.393 OA
ATOM     35  H3  UAP C   4      36.574  68.221  23.744  1.00  0.00     0.210 HD
ENDBRANCH  25  34
BRANCH  27  36
HETATM   36  C6  UAP C   4      38.207  72.374  22.855  1.00 37.96     0.203 C 
HETATM   37  O6A UAP C   4      38.123  73.140  23.836  1.00 40.05    -0.646 OA
HETATM   38  O6B UAP C   4      39.183  72.354  22.076  1.00 36.71    -0.646 OA
ENDBRANCH  27  36
ENDBRANCH  22  23
ENDBRANCH  11  22
BRANCH  12  39
HETATM   39  C6  SGN C   3      33.351  73.493  19.511  1.00 42.65     0.227 C 
BRANCH  39  40
HETATM   40  O6  SGN C   3      32.006  73.201  19.075  1.00 51.09    -0.254 OA
BRANCH  40  41
HETATM   41  S2  SGN C   3      31.073  72.436  20.120  1.00 54.80     0.251 S 
HETATM   42  O4S SGN C   3      30.067  73.400  20.602  1.00 54.99    -0.572 OA
HETATM   43  O5S SGN C   3      31.964  71.967  21.223  1.00 53.99    -0.572 OA
HETATM   44  O6S SGN C   3      30.458  71.326  19.405  1.00 55.43    -0.572 OA
ENDBRANCH  40  41
ENDBRANCH  39  40
ENDBRANCH  12  39
ENDBRANCH   7   8
ENDBRANCH   4   7
BRANCH   3  45
HETATM   45  O3  IDS C   2      33.519  75.888  14.910  1.00 39.65    -0.390 OA
ATOM     46  H3  IDS C   2      34.100  75.831  15.659  1.00  0.00     0.210 HD
ENDBRANCH   3  45
BRANCH   5  47
HETATM   47  C6  IDS C   2      32.440  71.060  15.264  1.00 36.10     0.206 C 
HETATM   48  O6A IDS C   2      32.779  70.075  14.571  1.00 32.44    -0.646 OA
HETATM   49  O6B IDS C   2      32.152  70.995  16.483  1.00 33.44    -0.646 OA
ENDBRANCH   5  47
BRANCH   2  50
HETATM   50  O2  IDS C   2      32.686  75.780  12.250  1.00 43.59    -0.244 OA
BRANCH  50  51
HETATM   51  S   IDS C   2      31.647  76.989  12.170  1.00 44.11     0.252 S 
HETATM   52  O1S IDS C   2      31.983  77.925  13.297  1.00 44.48    -0.572 OA
HETATM   53  O2S IDS C   2      30.295  76.409  12.312  1.00 44.29    -0.572 OA
HETATM   54  O3S IDS C   2      31.830  77.617  10.874  1.00 44.74    -0.572 OA
ENDBRANCH  50  51
ENDBRANCH   2  50
BRANCH   1  55
HETATM   55  O4  SGN C   1      31.139  73.136  11.846  1.00 44.73    -0.348 OA
BRANCH  55  56
HETATM   56  C4  SGN C   1      31.003  72.176  10.776  1.00 48.25     0.186 C 
HETATM   57  C3  SGN C   1      30.019  71.074  11.189  1.00 48.43     0.178 C 
HETATM   58  C2  SGN C   1      29.750  70.142  10.009  1.00 48.58     0.181 C 
HETATM   59  C1  SGN C   1      29.308  70.918   8.769  1.00 50.40     0.283 C 
HETATM   60  O5  SGN C   1      30.276  71.923   8.446  1.00 50.82    -0.349 OA
HETATM   61  C5  SGN C   1      30.476  72.879   9.514  1.00 51.58     0.181 C 
BRANCH  57  62
HETATM   62  O3  SGN C   1      30.558  70.324  12.266  1.00 46.09    -0.391 OA
ATOM     63  H3  SGN C   1      29.978  69.597  12.463  1.00  0.00     0.210 HD
ENDBRANCH  57  62
BRANCH  58  64
HETATM   64  N2  SGN C   1      28.739  69.164  10.357  1.00 48.56    -0.289 N 
ATOM     65  H2  SGN C   1      27.908  69.401  10.899  1.00  0.00     0.175 HD
BRANCH  64  66
HETATM   66  S1  SGN C   1      29.042  67.635   9.804  1.00 47.67     0.205 S 
HETATM   67  O1S SGN C   1      30.509  67.520   9.655  1.00 47.59    -0.578 OA
HETATM   68  O2S SGN C   1      28.339  67.537   8.521  1.00 48.55    -0.578 OA
HETATM   69  O3S SGN C   1      28.503  66.703  10.819  1.00 47.08    -0.578 OA
ENDBRANCH  64  66
ENDBRANCH  58  64
BRANCH  59  70
HETATM   70  O1  SGN C   1      28.090  71.535   9.009  1.00 51.36    -0.369 OA
ATOM     71  H1  SGN C   1      27.393  70.890   9.002  1.00  0.00     0.212 HD
ENDBRANCH  59  70
BRANCH  61  72
HETATM   72  C6  SGN C   1      31.431  73.921   8.987  1.00 55.48     0.227 C 
BRANCH  72  73
HETATM   73  O6  SGN C   1      30.776  75.208   8.963  1.00 61.59    -0.254 OA
BRANCH  73  74
HETATM   74  S2  SGN C   1      30.561  75.831   7.512  1.00 65.98     0.251 S 
HETATM   75  O4S SGN C   1      31.704  75.324   6.629  1.00 65.09    -0.572 OA
HETATM   76  O5S SGN C   1      30.602  77.273   7.671  1.00 65.58    -0.572 OA
HETATM   77  O6S SGN C   1      29.170  75.341   7.003  1.00 65.84    -0.572 OA
ENDBRANCH  73  74
ENDBRANCH  72  73
ENDBRANCH  61  72
ENDBRANCH  55  56
ENDBRANCH   1  55
TORSDOF 27
ENDMDL
MODEL 76
REMARK VINA RESULT:      -5.1      4.263      7.698
REMARK  27 active torsions:
REMARK  status: ('A' for Active; 'I' for Inactive)
REMARK    1  A    between atoms: C1_1  and  O1_2 
REMARK    2  A    between atoms: S1_5  and  N2_7 
REMARK    3  A    between atoms: C2_6  and  N2_7 
REMARK    4  A    between atoms: S2_10  and  O6_22 
REMARK    5  A    between atoms: C3_11  and  O3_12 
REMARK    6  A    between atoms: C4_15  and  O4_16 
REMARK    7  A    between atoms: O4_16  and  C1_24 
REMARK    8  A    between atoms: C5_18  and  C6_21 
REMARK    9  A    between atoms: C6_21  and  O6_22 
REMARK   10  A    between atoms: C2_26  and  O2_27 
REMARK   11  A    between atoms: O2_27  and  S_40 
REMARK   12  A    between atoms: C3_29  and  O3_30 
REMARK   13  A    between atoms: C4_33  and  O4_34 
REMARK   14  A    between atoms: O4_34  and  C1_41 
REMARK   15  A    between atoms: C5_35  and  C6_37 
REMARK   16  A    between atoms: S1_43  and  N2_45 
REMARK   17  A    between atoms: C2_44  and  N2_45 
REMARK   18  A    between atoms: S2_48  and  O6_60 
REMARK   19  A    between atoms: C3_49  and  O3_50 
REMARK   20  A    between atoms: C4_53  and  O4_54 
REMARK   21  A    between atoms: O4_54  and  C1_62 
REMARK   22  A    between atoms: C5_56  and  C6_59 
REMARK   23  A    between atoms: C6_59  and  O6_60 
REMARK   24  A    between atoms: C2_64  and  O2_65 
REMARK   25  A    between atoms: O2_65  and  S_77 
REMARK   26  A    between atoms: C3_67  and  O3_68 
REMARK   27  A    between atoms: C5_72  and  C6_74 
ROOT
HETATM    1  C1  IDS C   2      32.489  72.999  14.480  1.00 40.81     0.294 C 
HETATM    2  C2  IDS C   2      32.409  74.011  15.625  1.00 40.20     0.231 C 
HETATM    3  C3  IDS C   2      33.247  73.558  16.817  1.00 39.01     0.185 C 
HETATM    4  C4  IDS C   2      32.757  72.198  17.353  1.00 37.65     0.195 C 
HETATM    5  C5  IDS C   2      31.957  71.467  16.267  1.00 35.99     0.257 C 
HETATM    6  O5  IDS C   2      32.601  71.649  14.983  1.00 39.00    -0.340 OA
ENDROOT
BRANCH   4   7
HETATM    7  O4  IDS C   2      33.891  71.392  17.761  1.00 35.98    -0.348 OA
BRANCH   7   8
HETATM    8  C1  SGN C   3      34.056  71.215  19.142  1.00 35.40     0.287 C 
HETATM    9  C2  SGN C   3      35.548  71.300  19.512  1.00 33.71     0.182 C 
HETATM   10  C3  SGN C   3      36.330  70.059  19.067  1.00 35.79     0.178 C 
HETATM   11  C4  SGN C   3      35.603  68.756  19.442  1.00 36.62     0.186 C 
HETATM   12  C5  SGN C   3      34.143  68.830  19.013  1.00 39.32     0.181 C 
HETATM   13  O5  SGN C   3      33.514  69.986  19.593  1.00 37.58    -0.349 OA
BRANCH   9  14
HETATM   14  N2  SGN C   3      36.133  72.467  18.890  1.00 29.28    -0.289 N 
ATOM     15  H2  SGN C   3      36.248  72.524  17.879  1.00  0.00     0.175 HD
BRANCH  14  16
HETATM   16  S1  SGN C   3      36.609  73.704  19.877  1.00 27.84     0.205 S 
HETATM   17  O1S SGN C   3      36.609  73.128  21.209  1.00 27.65    -0.578 OA
HETATM   18  O2S SGN C   3      35.572  74.763  19.706  1.00 27.72    -0.578 OA
HETATM   19  O3S SGN C   3      37.967  74.177  19.461  1.00 28.50    -0.578 OA
ENDBRANCH  14  16
ENDBRANCH   9  14
BRANCH  10  20
HETATM   20  O3  SGN C   3      37.629  70.081  19.654  1.00 34.89    -0.391 OA
ATOM     21  H3  SGN C   3      37.828  70.961  19.952  1.00  0.00     0.210 HD
ENDBRANCH  10  20
BRANCH  11  22
HETATM   22  O4  SGN C   3      36.226  67.654  18.758  1.00 37.13    -0.348 OA
BRANCH  22  23
HETATM   23  C1  UAP C   4      36.571  67.894  17.438  1.00 39.64     0.294 C 
HETATM   24  C2  UAP C   4      37.993  67.430  17.177  1.00 38.70     0.228 C 
HETATM   25  C3  UAP C   4      38.406  67.783  15.751  1.00 38.51     0.156 C 
HETATM   26  C4  UAP C   4      37.265  67.520  14.663  1.00 38.14     0.077 C 
HETATM   27  C5  UAP C   4      36.002  67.224  15.197  1.00 38.51     0.228 C 
HETATM   28  O5  UAP C   4      35.682  67.150  16.615  1.00 37.46    -0.343 OA
BRANCH  24  29
HETATM   29  O2  UAP C   4      38.919  68.115  18.080  1.00 40.54    -0.244 OA
BRANCH  29  30
HETATM   30  S   UAP C   4      39.786  67.297  19.149  1.00 40.49     0.252 S 
HETATM   31  O1S UAP C   4      41.187  67.367  18.708  1.00 40.89    -0.572 OA
HETATM   32  O2S UAP C   4      39.282  65.916  19.137  1.00 37.88    -0.572 OA
HETATM   33  O3S UAP C   4      39.588  67.946  20.455  1.00 37.47    -0.572 OA
ENDBRANCH  29  30
ENDBRANCH  24  29
BRANCH  25  34
HETATM   34  O3  UAP C   4      39.562  67.036  15.407  1.00 38.58    -0.393 OA
ATOM     35  H3  UAP C   4      39.593  66.251  15.941  1.00  0.00     0.210 HD
ENDBRANCH  25  34
BRANCH  27  36
HETATM   36  C6  UAP C   4      34.824  66.911  14.341  1.00 37.96     0.203 C 
HETATM   37  O6A UAP C   4      34.239  65.825  14.520  1.00 40.05    -0.646 OA
HETATM   38  O6B UAP C   4      34.479  67.749  13.481  1.00 36.71    -0.646 OA
ENDBRANCH  27  36
ENDBRANCH  22  23
ENDBRANCH  11  22
BRANCH  12  39
HETATM   39  C6  SGN C   3      33.322  67.635  19.410  1.00 42.65     0.227 C 
BRANCH  39  40
HETATM   40  O6  SGN C   3      33.048  67.800  20.818  1.00 51.09    -0.254 OA
BRANCH  40  41
HETATM   41  S2  SGN C   3      33.319  66.529  21.745  1.00 54.80     0.251 S 
HETATM   42  O4S SGN C   3      33.273  66.987  23.146  1.00 54.99    -0.572 OA
HETATM   43  O5S SGN C   3      34.670  66.012  21.376  1.00 53.99    -0.572 OA
HETATM   44  O6S SGN C   3      32.266  65.564  21.458  1.00 55.43    -0.572 OA
ENDBRANCH  40  41
ENDBRANCH  39  40
ENDBRANCH  12  39
ENDBRANCH   7   8
ENDBRANCH   4   7
BRANCH   3  45
HETATM   45  O3  IDS C   2      33.176  74.536  17.846  1.00 39.65    -0.390 OA
ATOM     46  H3  IDS C   2      32.954  74.115  18.668  1.00  0.00     0.210 HD
ENDBRANCH   3  45
BRANCH   5  47
HETATM   47  C6  IDS C   2      31.782  69.971  16.493  1.00 36.10     0.206 C 
HETATM   48  O6A IDS C   2      32.416  69.194  15.746  1.00 32.44    -0.646 OA
HETATM   49  O6B IDS C   2      31.029  69.594  17.422  1.00 33.44    -0.646 OA
ENDBRANCH   5  47
BRANCH   2  50
HETATM   50  O2  IDS C   2      32.914  75.301  15.176  1.00 43.59    -0.244 OA
BRANCH  50  51
HETATM   51  S   IDS C   2      31.961  76.581  15.223  1.00 44.11     0.252 S 
HETATM   52  O1S IDS C   2      32.700  77.698  14.540  1.00 44.48    -0.572 OA
HETATM   53  O2S IDS C   2      31.700  76.875  16.647  1.00 44.29    -0.572 OA
HETATM   54  O3S IDS C   2      30.745  76.227  14.514  1.00 44.74    -0.572 OA
ENDBRANCH  50  51
ENDBRANCH   2  50
BRANCH   1  55
HETATM   55  O4  SGN C   1      31.342  73.087  13.703  1.00 44.73    -0.348 OA
BRANCH  55  56
HETATM   56  C4  SGN C   1      31.383  72.508  12.380  1.00 48.25     0.186 C 
HETATM   57  C3  SGN C   1      30.378  71.352  12.289  1.00 48.43     0.178 C 
HETATM   58  C2  SGN C   1      30.302  70.836  10.852  1.00 48.58     0.181 C 
HETATM   59  C1  SGN C   1      30.021  71.966   9.864  1.00 50.40     0.283 C 
HETATM   60  O5  SGN C   1      30.999  73.003  10.009  1.00 50.82    -0.349 OA
HETATM   61  C5  SGN C   1      31.022  73.578  11.336  1.00 51.58     0.181 C 
BRANCH  57  62
HETATM   62  O3  SGN C   1      30.778  70.295  13.146  1.00 46.09    -0.391 OA
ATOM     63  H3  SGN C   1      31.368  69.717  12.677  1.00  0.00     0.210 HD
ENDBRANCH  57  62
BRANCH  58  64
HETATM   64  N2  SGN C   1      29.277  69.820  10.734  1.00 48.56    -0.289 N 
ATOM     65  H2  SGN C   1      28.289  70.012  10.897  1.00  0.00     0.175 HD
BRANCH  64  66
HETATM   66  S1  SGN C   1      29.840  68.322  10.312  1.00 47.67     0.205 S 
HETATM   67  O1S SGN C   1      30.800  67.918  11.362  1.00 47.59    -0.578 OA
HETATM   68  O2S SGN C   1      30.480  68.499   9.005  1.00 48.55    -0.578 OA
HETATM   69  O3S SGN C   1      28.662  67.429  10.251  1.00 47.08    -0.578 OA
ENDBRANCH  64  66
ENDBRANCH  58  64
BRANCH  59  70
HETATM   70  O1  SGN C   1      28.766  72.504  10.107  1.00 51.36    -0.369 OA
ATOM     71  H1  SGN C   1      28.547  72.412  11.026  1.00  0.00     0.212 HD
ENDBRANCH  59  70
BRANCH  61  72
HETATM   72  C6  SGN C   1      32.015  74.712  11.298  1.00 55.48     0.227 C 
BRANCH  72  73
HETATM   73  O6  SGN C   1      31.309  75.970  11.225  1.00 61.59    -0.254 OA
BRANCH  73  74
HETATM   74  S2  SGN C   1      32.207  77.228  10.837  1.00 65.98     0.251 S 
HETATM   75  O4S SGN C   1      31.580  78.453  11.505  1.00 65.09    -0.572 OA
HETATM   76  O5S SGN C   1      32.177  77.327   9.389  1.00 65.58    -0.572 OA
HETATM   77  O6S SGN C   1      33.647  76.947  11.370  1.00 65.84    -0.572 OA
ENDBRANCH  73  74
ENDBRANCH  72  73
ENDBRANCH  61  72
ENDBRANCH  55  56
ENDBRANCH   1  55
TORSDOF 27
ENDMDL
MODEL 77
REMARK VINA RESULT:      -5.1      9.438     14.207
REMARK  27 active torsions:
REMARK  status: ('A' for Active; 'I' for Inactive)
REMARK    1  A    between atoms: C1_1  and  O1_2 
REMARK    2  A    between atoms: S1_5  and  N2_7 
REMARK    3  A    between atoms: C2_6  and  N2_7 
REMARK    4  A    between atoms: S2_10  and  O6_22 
REMARK    5  A    between atoms: C3_11  and  O3_12 
REMARK    6  A    between atoms: C4_15  and  O4_16 
REMARK    7  A    between atoms: O4_16  and  C1_24 
REMARK    8  A    between atoms: C5_18  and  C6_21 
REMARK    9  A    between atoms: C6_21  and  O6_22 
REMARK   10  A    between atoms: C2_26  and  O2_27 
REMARK   11  A    between atoms: O2_27  and  S_40 
REMARK   12  A    between atoms: C3_29  and  O3_30 
REMARK   13  A    between atoms: C4_33  and  O4_34 
REMARK   14  A    between atoms: O4_34  and  C1_41 
REMARK   15  A    between atoms: C5_35  and  C6_37 
REMARK   16  A    between atoms: S1_43  and  N2_45 
REMARK   17  A    between atoms: C2_44  and  N2_45 
REMARK   18  A    between atoms: S2_48  and  O6_60 
REMARK   19  A    between atoms: C3_49  and  O3_50 
REMARK   20  A    between atoms: C4_53  and  O4_54 
REMARK   21  A    between atoms: O4_54  and  C1_62 
REMARK   22  A    between atoms: C5_56  and  C6_59 
REMARK   23  A    between atoms: C6_59  and  O6_60 
REMARK   24  A    between atoms: C2_64  and  O2_65 
REMARK   25  A    between atoms: O2_65  and  S_77 
REMARK   26  A    between atoms: C3_67  and  O3_68 
REMARK   27  A    between atoms: C5_72  and  C6_74 
ROOT
HETATM    1  C1  IDS C   2      26.975  84.357  12.958  1.00 40.81     0.294 C 
HETATM    2  C2  IDS C   2      27.951  84.974  13.963  1.00 40.20     0.231 C 
HETATM    3  C3  IDS C   2      29.329  84.328  13.856  1.00 39.01     0.185 C 
HETATM    4  C4  IDS C   2      29.253  82.814  14.140  1.00 37.65     0.195 C 
HETATM    5  C5  IDS C   2      27.818  82.316  13.929  1.00 35.99     0.257 C 
HETATM    6  O5  IDS C   2      27.248  82.952  12.761  1.00 39.00    -0.340 OA
ENDROOT
BRANCH   4   7
HETATM    7  O4  IDS C   2      30.159  82.103  13.259  1.00 35.98    -0.348 OA
BRANCH   7   8
HETATM    8  C1  SGN C   3      31.420  81.796  13.790  1.00 35.40     0.287 C 
HETATM    9  C2  SGN C   3      32.511  82.024  12.729  1.00 33.71     0.182 C 
HETATM   10  C3  SGN C   3      32.498  80.947  11.638  1.00 35.79     0.178 C 
HETATM   11  C4  SGN C   3      32.401  79.531  12.230  1.00 36.62     0.186 C 
HETATM   12  C5  SGN C   3      31.281  79.469  13.260  1.00 39.32     0.181 C 
HETATM   13  O5  SGN C   3      31.488  80.467  14.276  1.00 37.58    -0.349 OA
BRANCH   9  14
HETATM   14  N2  SGN C   3      32.319  83.317  12.109  1.00 29.28    -0.289 N 
ATOM     15  H2  SGN C   3      31.485  83.519  11.558  1.00  0.00     0.175 HD
BRANCH  14  16
HETATM   16  S1  SGN C   3      33.497  84.454  12.326  1.00 27.84     0.205 S 
HETATM   17  O1S SGN C   3      34.738  83.702  12.296  1.00 27.65    -0.578 OA
HETATM   18  O2S SGN C   3      33.220  85.056  13.663  1.00 27.72    -0.578 OA
HETATM   19  O3S SGN C   3      33.419  85.468  11.228  1.00 28.50    -0.578 OA
ENDBRANCH  14  16
ENDBRANCH   9  14
BRANCH  10  20
HETATM   20  O3  SGN C   3      33.673  81.065  10.840  1.00 34.89    -0.391 OA
ATOM     21  H3  SGN C   3      33.450  81.461  10.005  1.00  0.00     0.210 HD
ENDBRANCH  10  20
BRANCH  11  22
HETATM   22  O4  SGN C   3      32.105  78.597  11.176  1.00 37.13    -0.348 OA
BRANCH  22  23
HETATM   23  C1  UAP C   4      33.042  77.592  10.993  1.00 39.64     0.294 C 
HETATM   24  C2  UAP C   4      32.841  76.930   9.642  1.00 38.70     0.228 C 
HETATM   25  C3  UAP C   4      33.809  75.761   9.483  1.00 38.51     0.156 C 
HETATM   26  C4  UAP C   4      35.285  76.065  10.015  1.00 38.14     0.077 C 
HETATM   27  C5  UAP C   4      35.412  77.258  10.742  1.00 38.51     0.228 C 
HETATM   28  O5  UAP C   4      34.331  78.189  11.032  1.00 37.46    -0.343 OA
BRANCH  24  29
HETATM   29  O2  UAP C   4      31.485  76.389   9.543  1.00 40.54    -0.244 OA
BRANCH  29  30
HETATM   30  S   UAP C   4      30.534  76.764   8.311  1.00 40.49     0.252 S 
HETATM   31  O1S UAP C   4      29.743  75.565   7.999  1.00 40.89    -0.572 OA
HETATM   32  O2S UAP C   4      31.414  77.139   7.195  1.00 37.88    -0.572 OA
HETATM   33  O3S UAP C   4      29.685  77.885   8.746  1.00 37.47    -0.572 OA
ENDBRANCH  29  30
ENDBRANCH  24  29
BRANCH  25  34
HETATM   34  O3  UAP C   4      33.871  75.396   8.113  1.00 38.58    -0.393 OA
ATOM     35  H3  UAP C   4      32.998  75.445   7.741  1.00  0.00     0.210 HD
ENDBRANCH  25  34
BRANCH  27  36
HETATM   36  C6  UAP C   4      36.717  77.729  11.283  1.00 37.96     0.203 C 
HETATM   37  O6A UAP C   4      37.762  77.234  10.817  1.00 40.05    -0.646 OA
HETATM   38  O6B UAP C   4      36.705  78.598  12.182  1.00 36.71    -0.646 OA
ENDBRANCH  27  36
ENDBRANCH  22  23
ENDBRANCH  11  22
BRANCH  12  39
HETATM   39  C6  SGN C   3      31.158  78.144  13.961  1.00 42.65     0.227 C 
BRANCH  39  40
HETATM   40  O6  SGN C   3      30.758  78.453  15.313  1.00 51.09    -0.254 OA
BRANCH  40  41
HETATM   41  S2  SGN C   3      31.225  77.426  16.442  1.00 54.80     0.251 S 
HETATM   42  O4S SGN C   3      32.449  77.972  17.057  1.00 54.99    -0.572 OA
HETATM   43  O5S SGN C   3      31.483  76.126  15.755  1.00 53.99    -0.572 OA
HETATM   44  O6S SGN C   3      30.135  77.329  17.403  1.00 55.43    -0.572 OA
ENDBRANCH  40  41
ENDBRANCH  39  40
ENDBRANCH  12  39
ENDBRANCH   7   8
ENDBRANCH   4   7
BRANCH   3  45
HETATM   45  O3  IDS C   2      30.216  84.947  14.778  1.00 39.65    -0.390 OA
ATOM     46  H3  IDS C   2      30.768  84.287  15.179  1.00  0.00     0.210 HD
ENDBRANCH   3  45
BRANCH   5  47
HETATM   47  C6  IDS C   2      27.678  80.810  13.755  1.00 36.10     0.206 C 
HETATM   48  O6A IDS C   2      27.919  80.087  14.747  1.00 32.44    -0.646 OA
HETATM   49  O6B IDS C   2      27.317  80.370  12.638  1.00 33.44    -0.646 OA
ENDBRANCH   5  47
BRANCH   2  50
HETATM   50  O2  IDS C   2      28.094  86.400  13.696  1.00 43.59    -0.244 OA
BRANCH  50  51
HETATM   51  S   IDS C   2      28.315  87.411  14.911  1.00 44.11     0.252 S 
HETATM   52  O1S IDS C   2      29.752  87.847  14.858  1.00 44.48    -0.572 OA
HETATM   53  O2S IDS C   2      28.003  86.672  16.153  1.00 44.29    -0.572 OA
HETATM   54  O3S IDS C   2      27.405  88.523  14.704  1.00 44.74    -0.572 OA
ENDBRANCH  50  51
ENDBRANCH   2  50
BRANCH   1  55
HETATM   55  O4  SGN C   1      25.677  84.494  13.430  1.00 44.73    -0.348 OA
BRANCH  55  56
HETATM   56  C4  SGN C   1      24.598  84.175  12.525  1.00 48.25     0.186 C 
HETATM   57  C3  SGN C   1      23.761  83.025  13.099  1.00 48.43     0.178 C 
HETATM   58  C2  SGN C   1      22.530  82.785  12.227  1.00 48.58     0.181 C 
HETATM   59  C1  SGN C   1      21.732  84.070  12.015  1.00 50.40     0.283 C 
HETATM   60  O5  SGN C   1      22.579  85.093  11.476  1.00 50.82    -0.349 OA
HETATM   61  C5  SGN C   1      23.700  85.409  12.334  1.00 51.58     0.181 C 
BRANCH  57  62
HETATM   62  O3  SGN C   1      24.539  81.839  13.149  1.00 46.09    -0.391 OA
ATOM     63  H3  SGN C   1      23.960  81.086  13.193  1.00  0.00     0.210 HD
ENDBRANCH  57  62
BRANCH  58  64
HETATM   64  N2  SGN C   1      21.678  81.776  12.821  1.00 48.56    -0.289 N 
ATOM     65  H2  SGN C   1      21.464  81.753  13.818  1.00  0.00     0.175 HD
BRANCH  64  66
HETATM   66  S1  SGN C   1      21.079  80.664  11.752  1.00 47.67     0.205 S 
HETATM   67  O1S SGN C   1      20.716  79.468  12.542  1.00 47.59    -0.578 OA
HETATM   68  O2S SGN C   1      22.171  80.403  10.809  1.00 48.55    -0.578 OA
HETATM   69  O3S SGN C   1      19.906  81.290  11.103  1.00 47.08    -0.578 OA
ENDBRANCH  64  66
ENDBRANCH  58  64
BRANCH  59  70
HETATM   70  O1  SGN C   1      21.219  84.512  13.226  1.00 51.36    -0.369 OA
ATOM     71  H1  SGN C   1      21.221  85.462  13.250  1.00  0.00     0.212 HD
ENDBRANCH  59  70
BRANCH  61  72
HETATM   72  C6  SGN C   1      24.426  86.562  11.687  1.00 55.48     0.227 C 
BRANCH  72  73
HETATM   73  O6  SGN C   1      24.300  86.468  10.252  1.00 61.59    -0.254 OA
BRANCH  73  74
HETATM   74  S2  SGN C   1      25.671  86.275   9.463  1.00 65.98     0.251 S 
HETATM   75  O4S SGN C   1      25.586  87.128   8.195  1.00 65.09    -0.572 OA
HETATM   76  O5S SGN C   1      25.775  84.860   9.155  1.00 65.58    -0.572 OA
HETATM   77  O6S SGN C   1      26.817  86.750  10.409  1.00 65.84    -0.572 OA
ENDBRANCH  73  74
ENDBRANCH  72  73
ENDBRANCH  61  72
ENDBRANCH  55  56
ENDBRANCH   1  55
TORSDOF 27
ENDMDL
MODEL 78
REMARK VINA RESULT:      -5.1      5.841     10.970
REMARK  27 active torsions:
REMARK  status: ('A' for Active; 'I' for Inactive)
REMARK    1  A    between atoms: C1_1  and  O1_2 
REMARK    2  A    between atoms: S1_5  and  N2_7 
REMARK    3  A    between atoms: C2_6  and  N2_7 
REMARK    4  A    between atoms: S2_10  and  O6_22 
REMARK    5  A    between atoms: C3_11  and  O3_12 
REMARK    6  A    between atoms: C4_15  and  O4_16 
REMARK    7  A    between atoms: O4_16  and  C1_24 
REMARK    8  A    between atoms: C5_18  and  C6_21 
REMARK    9  A    between atoms: C6_21  and  O6_22 
REMARK   10  A    between atoms: C2_26  and  O2_27 
REMARK   11  A    between atoms: O2_27  and  S_40 
REMARK   12  A    between atoms: C3_29  and  O3_30 
REMARK   13  A    between atoms: C4_33  and  O4_34 
REMARK   14  A    between atoms: O4_34  and  C1_41 
REMARK   15  A    between atoms: C5_35  and  C6_37 
REMARK   16  A    between atoms: S1_43  and  N2_45 
REMARK   17  A    between atoms: C2_44  and  N2_45 
REMARK   18  A    between atoms: S2_48  and  O6_60 
REMARK   19  A    between atoms: C3_49  and  O3_50 
REMARK   20  A    between atoms: C4_53  and  O4_54 
REMARK   21  A    between atoms: O4_54  and  C1_62 
REMARK   22  A    between atoms: C5_56  and  C6_59 
REMARK   23  A    between atoms: C6_59  and  O6_60 
REMARK   24  A    between atoms: C2_64  and  O2_65 
REMARK   25  A    between atoms: O2_65  and  S_77 
REMARK   26  A    between atoms: C3_67  and  O3_68 
REMARK   27  A    between atoms: C5_72  and  C6_74 
ROOT
HETATM    1  C1  IDS C   2      33.241  71.262  10.134  1.00 40.81     0.294 C 
HETATM    2  C2  IDS C   2      34.666  71.805   9.995  1.00 40.20     0.231 C 
HETATM    3  C3  IDS C   2      35.071  72.602  11.232  1.00 39.01     0.185 C 
HETATM    4  C4  IDS C   2      34.128  73.802  11.449  1.00 37.65     0.195 C 
HETATM    5  C5  IDS C   2      32.801  73.561  10.719  1.00 35.99     0.257 C 
HETATM    6  O5  IDS C   2      32.404  72.177  10.874  1.00 39.00    -0.340 OA
ENDROOT
BRANCH   4   7
HETATM    7  O4  IDS C   2      33.887  73.987  12.867  1.00 35.98    -0.348 OA
BRANCH   7   8
HETATM    8  C1  SGN C   3      34.363  75.183  13.422  1.00 35.40     0.287 C 
HETATM    9  C2  SGN C   3      34.993  74.914  14.800  1.00 33.71     0.182 C 
HETATM   10  C3  SGN C   3      33.940  74.613  15.873  1.00 35.79     0.178 C 
HETATM   11  C4  SGN C   3      32.777  75.619  15.835  1.00 36.62     0.186 C 
HETATM   12  C5  SGN C   3      32.268  75.776  14.407  1.00 39.32     0.181 C 
HETATM   13  O5  SGN C   3      33.346  76.163  13.537  1.00 37.58    -0.349 OA
BRANCH   9  14
HETATM   14  N2  SGN C   3      35.896  73.788  14.706  1.00 29.28    -0.289 N 
ATOM     15  H2  SGN C   3      35.549  72.829  14.726  1.00  0.00     0.175 HD
BRANCH  14  16
HETATM   16  S1  SGN C   3      37.510  74.110  14.567  1.00 27.84     0.205 S 
HETATM   17  O1S SGN C   3      37.888  73.533  13.290  1.00 27.65    -0.578 OA
HETATM   18  O2S SGN C   3      38.150  73.417  15.724  1.00 27.72    -0.578 OA
HETATM   19  O3S SGN C   3      37.728  75.590  14.610  1.00 28.50    -0.578 OA
ENDBRANCH  14  16
ENDBRANCH   9  14
BRANCH  10  20
HETATM   20  O3  SGN C   3      34.555  74.626  17.159  1.00 34.89    -0.391 OA
ATOM     21  H3  SGN C   3      35.120  75.386  17.233  1.00  0.00     0.210 HD
ENDBRANCH  10  20
BRANCH  11  22
HETATM   22  O4  SGN C   3      31.700  75.128  16.653  1.00 37.13    -0.348 OA
BRANCH  22  23
HETATM   23  C1  UAP C   4      31.925  73.900  17.255  1.00 39.64     0.294 C 
HETATM   24  C2  UAP C   4      31.091  73.776  18.517  1.00 38.70     0.228 C 
HETATM   25  C3  UAP C   4      31.412  72.466  19.230  1.00 38.51     0.156 C 
HETATM   26  C4  UAP C   4      31.567  71.215  18.247  1.00 38.14     0.077 C 
HETATM   27  C5  UAP C   4      31.610  71.542  16.884  1.00 38.51     0.228 C 
HETATM   28  O5  UAP C   4      31.530  72.889  16.336  1.00 37.46    -0.343 OA
BRANCH  24  29
HETATM   29  O2  UAP C   4      31.414  74.865  19.442  1.00 40.54    -0.244 OA
BRANCH  29  30
HETATM   30  S   UAP C   4      30.268  75.819  20.024  1.00 40.49     0.252 S 
HETATM   31  O1S UAP C   4      29.834  76.689  18.921  1.00 40.89    -0.572 OA
HETATM   32  O2S UAP C   4      30.875  76.592  21.118  1.00 37.88    -0.572 OA
HETATM   33  O3S UAP C   4      29.181  74.950  20.500  1.00 37.47    -0.572 OA
ENDBRANCH  29  30
ENDBRANCH  24  29
BRANCH  25  34
HETATM   34  O3  UAP C   4      30.390  72.193  20.177  1.00 38.58    -0.393 OA
ATOM     35  H3  UAP C   4      30.658  71.460  20.718  1.00  0.00     0.210 HD
ENDBRANCH  25  34
BRANCH  27  36
HETATM   36  C6  UAP C   4      31.711  70.509  15.816  1.00 37.96     0.203 C 
HETATM   37  O6A UAP C   4      32.703  69.753  15.820  1.00 40.05    -0.646 OA
HETATM   38  O6B UAP C   4      30.800  70.449  14.963  1.00 36.71    -0.646 OA
ENDBRANCH  27  36
ENDBRANCH  22  23
ENDBRANCH  11  22
BRANCH  12  39
HETATM   39  C6  SGN C   3      31.182  76.804  14.249  1.00 42.65     0.227 C 
BRANCH  39  40
HETATM   40  O6  SGN C   3      31.562  77.908  15.099  1.00 51.09    -0.254 OA
BRANCH  40  41
HETATM   41  S2  SGN C   3      30.512  79.104  15.217  1.00 54.80     0.251 S 
HETATM   42  O4S SGN C   3      31.151  80.309  14.656  1.00 54.99    -0.572 OA
HETATM   43  O5S SGN C   3      30.209  79.263  16.671  1.00 53.99    -0.572 OA
HETATM   44  O6S SGN C   3      29.336  78.711  14.453  1.00 55.43    -0.572 OA
ENDBRANCH  40  41
ENDBRANCH  39  40
ENDBRANCH  12  39
ENDBRANCH   7   8
ENDBRANCH   4   7
BRANCH   3  45
HETATM   45  O3  IDS C   2      36.408  73.061  11.082  1.00 39.65    -0.390 OA
ATOM     46  H3  IDS C   2      36.417  74.010  11.061  1.00  0.00     0.210 HD
ENDBRANCH   3  45
BRANCH   5  47
HETATM   47  C6  IDS C   2      31.643  74.433  11.183  1.00 36.10     0.206 C 
HETATM   48  O6A IDS C   2      30.773  73.905  11.910  1.00 32.44    -0.646 OA
HETATM   49  O6B IDS C   2      31.625  75.637  10.830  1.00 33.44    -0.646 OA
ENDBRANCH   5  47
BRANCH   2  50
HETATM   50  O2  IDS C   2      35.600  70.697   9.840  1.00 43.59    -0.244 OA
BRANCH  50  51
HETATM   51  S   IDS C   2      36.605  70.681   8.600  1.00 44.11     0.252 S 
HETATM   52  O1S IDS C   2      36.719  72.098   8.115  1.00 44.48    -0.572 OA
HETATM   53  O2S IDS C   2      36.017  69.788   7.578  1.00 44.29    -0.572 OA
HETATM   54  O3S IDS C   2      37.873  70.174   9.092  1.00 44.74    -0.572 OA
ENDBRANCH  50  51
ENDBRANCH   2  50
BRANCH   1  55
HETATM   55  O4  SGN C   1      32.691  71.080   8.873  1.00 44.73    -0.348 OA
BRANCH  55  56
HETATM   56  C4  SGN C   1      31.409  70.419   8.791  1.00 48.25     0.186 C 
HETATM   57  C3  SGN C   1      31.248  69.451   9.969  1.00 48.43     0.178 C 
HETATM   58  C2  SGN C   1      29.836  68.865   9.977  1.00 48.58     0.181 C 
HETATM   59  C1  SGN C   1      28.773  69.961   9.941  1.00 50.40     0.283 C 
HETATM   60  O5  SGN C   1      28.989  70.821   8.816  1.00 50.82    -0.349 OA
HETATM   61  C5  SGN C   1      30.283  71.466   8.837  1.00 51.58     0.181 C 
BRANCH  57  62
HETATM   62  O3  SGN C   1      32.192  68.397   9.862  1.00 46.09    -0.391 OA
ATOM     63  H3  SGN C   1      31.731  67.574   9.747  1.00  0.00     0.210 HD
ENDBRANCH  57  62
BRANCH  58  64
HETATM   64  N2  SGN C   1      29.640  68.035  11.148  1.00 48.56    -0.289 N 
ATOM     65  H2  SGN C   1      29.737  68.392  12.099  1.00  0.00     0.175 HD
BRANCH  64  66
HETATM   66  S1  SGN C   1      29.246  66.463  10.818  1.00 47.67     0.205 S 
HETATM   67  O1S SGN C   1      28.157  66.498   9.818  1.00 47.59    -0.578 OA
HETATM   68  O2S SGN C   1      28.813  65.892  12.098  1.00 48.55    -0.578 OA
HETATM   69  O3S SGN C   1      30.471  65.820  10.296  1.00 47.08    -0.578 OA
ENDBRANCH  64  66
ENDBRANCH  58  64
BRANCH  59  70
HETATM   70  O1  SGN C   1      28.840  70.722  11.099  1.00 51.36    -0.369 OA
ATOM     71  H1  SGN C   1      28.486  71.588  10.938  1.00  0.00     0.212 HD
ENDBRANCH  59  70
BRANCH  61  72
HETATM   72  C6  SGN C   1      30.316  72.407   7.659  1.00 55.48     0.227 C 
BRANCH  72  73
HETATM   73  O6  SGN C   1      28.971  72.819   7.333  1.00 61.59    -0.254 OA
BRANCH  73  74
HETATM   74  S2  SGN C   1      28.592  72.733   5.787  1.00 65.98     0.251 S 
HETATM   75  O4S SGN C   1      29.672  71.889   5.105  1.00 65.09    -0.572 OA
HETATM   76  O5S SGN C   1      28.576  74.095   5.288  1.00 65.58    -0.572 OA
HETATM   77  O6S SGN C   1      27.186  72.063   5.694  1.00 65.84    -0.572 OA
ENDBRANCH  73  74
ENDBRANCH  72  73
ENDBRANCH  61  72
ENDBRANCH  55  56
ENDBRANCH   1  55
TORSDOF 27
ENDMDL
MODEL 79
REMARK VINA RESULT:      -5.0      2.542     11.225
REMARK  27 active torsions:
REMARK  status: ('A' for Active; 'I' for Inactive)
REMARK    1  A    between atoms: C1_1  and  O1_2 
REMARK    2  A    between atoms: S1_5  and  N2_7 
REMARK    3  A    between atoms: C2_6  and  N2_7 
REMARK    4  A    between atoms: S2_10  and  O6_22 
REMARK    5  A    between atoms: C3_11  and  O3_12 
REMARK    6  A    between atoms: C4_15  and  O4_16 
REMARK    7  A    between atoms: O4_16  and  C1_24 
REMARK    8  A    between atoms: C5_18  and  C6_21 
REMARK    9  A    between atoms: C6_21  and  O6_22 
REMARK   10  A    between atoms: C2_26  and  O2_27 
REMARK   11  A    between atoms: O2_27  and  S_40 
REMARK   12  A    between atoms: C3_29  and  O3_30 
REMARK   13  A    between atoms: C4_33  and  O4_34 
REMARK   14  A    between atoms: O4_34  and  C1_41 
REMARK   15  A    between atoms: C5_35  and  C6_37 
REMARK   16  A    between atoms: S1_43  and  N2_45 
REMARK   17  A    between atoms: C2_44  and  N2_45 
REMARK   18  A    between atoms: S2_48  and  O6_60 
REMARK   19  A    between atoms: C3_49  and  O3_50 
REMARK   20  A    between atoms: C4_53  and  O4_54 
REMARK   21  A    between atoms: O4_54  and  C1_62 
REMARK   22  A    between atoms: C5_56  and  C6_59 
REMARK   23  A    between atoms: C6_59  and  O6_60 
REMARK   24  A    between atoms: C2_64  and  O2_65 
REMARK   25  A    between atoms: O2_65  and  S_77 
REMARK   26  A    between atoms: C3_67  and  O3_68 
REMARK   27  A    between atoms: C5_72  and  C6_74 
ROOT
HETATM    1  C1  IDS C   2      34.407  70.036  18.913  1.00 40.81     0.294 C 
HETATM    2  C2  IDS C   2      34.142  69.972  17.407  1.00 40.20     0.231 C 
HETATM    3  C3  IDS C   2      33.753  71.342  16.860  1.00 39.01     0.185 C 
HETATM    4  C4  IDS C   2      32.474  71.867  17.543  1.00 37.65     0.195 C 
HETATM    5  C5  IDS C   2      32.268  71.152  18.884  1.00 35.99     0.257 C 
HETATM    6  O5  IDS C   2      33.542  70.998  19.555  1.00 39.00    -0.340 OA
ENDROOT
BRANCH   4   7
HETATM    7  O4  IDS C   2      32.581  73.297  17.755  1.00 35.98    -0.348 OA
BRANCH   7   8
HETATM    8  C1  SGN C   3      33.345  74.004  16.815  1.00 35.40     0.287 C 
HETATM    9  C2  SGN C   3      33.391  75.497  17.185  1.00 33.71     0.182 C 
HETATM   10  C3  SGN C   3      32.058  76.205  16.916  1.00 35.79     0.178 C 
HETATM   11  C4  SGN C   3      31.493  75.858  15.528  1.00 36.62     0.186 C 
HETATM   12  C5  SGN C   3      31.517  74.350  15.315  1.00 39.32     0.181 C 
HETATM   13  O5  SGN C   3      32.852  73.846  15.496  1.00 37.58    -0.349 OA
BRANCH   9  14
HETATM   14  N2  SGN C   3      33.717  75.638  18.587  1.00 29.28    -0.289 N 
ATOM     15  H2  SGN C   3      33.220  75.105  19.300  1.00  0.00     0.175 HD
BRANCH  14  16
HETATM   16  S1  SGN C   3      34.923  76.692  18.990  1.00 27.84     0.205 S 
HETATM   17  O1S SGN C   3      34.941  77.658  17.908  1.00 27.65    -0.578 OA
HETATM   18  O2S SGN C   3      36.165  75.864  19.045  1.00 27.72    -0.578 OA
HETATM   19  O3S SGN C   3      34.612  77.322  20.312  1.00 28.50    -0.578 OA
ENDBRANCH  14  16
ENDBRANCH   9  14
BRANCH  10  20
HETATM   20  O3  SGN C   3      32.236  77.614  17.033  1.00 34.89    -0.391 OA
ATOM     21  H3  SGN C   3      33.009  77.877  16.548  1.00  0.00     0.210 HD
ENDBRANCH  10  20
BRANCH  11  22
HETATM   22  O4  SGN C   3      30.129  76.309  15.446  1.00 37.13    -0.348 OA
BRANCH  22  23
HETATM   23  C1  UAP C   4      29.580  76.758  16.637  1.00 39.64     0.294 C 
HETATM   24  C2  UAP C   4      28.080  76.933  16.487  1.00 38.70     0.228 C 
HETATM   25  C3  UAP C   4      27.491  77.519  17.768  1.00 38.51     0.156 C 
HETATM   26  C4  UAP C   4      28.095  76.888  19.106  1.00 38.14     0.077 C 
HETATM   27  C5  UAP C   4      29.216  76.068  18.914  1.00 38.51     0.228 C 
HETATM   28  O5  UAP C   4      29.837  75.774  17.630  1.00 37.46    -0.343 OA
BRANCH  24  29
HETATM   29  O2  UAP C   4      27.788  77.874  15.404  1.00 40.54    -0.244 OA
BRANCH  29  30
HETATM   30  S   UAP C   4      26.299  78.055  14.847  1.00 40.49     0.252 S 
HETATM   31  O1S UAP C   4      26.408  78.285  13.399  1.00 40.89    -0.572 OA
HETATM   32  O2S UAP C   4      25.725  79.218  15.540  1.00 37.88    -0.572 OA
HETATM   33  O3S UAP C   4      25.569  76.814  15.153  1.00 37.47    -0.572 OA
ENDBRANCH  29  30
ENDBRANCH  24  29
BRANCH  25  34
HETATM   34  O3  UAP C   4      26.084  77.334  17.756  1.00 38.58    -0.393 OA
ATOM     35  H3  UAP C   4      25.672  78.123  17.424  1.00  0.00     0.210 HD
ENDBRANCH  25  34
BRANCH  27  36
HETATM   36  C6  UAP C   4      29.892  75.360  20.037  1.00 37.96     0.203 C 
HETATM   37  O6A UAP C   4      31.120  75.521  20.180  1.00 40.05    -0.646 OA
HETATM   38  O6B UAP C   4      29.198  74.636  20.782  1.00 36.71    -0.646 OA
ENDBRANCH  27  36
ENDBRANCH  22  23
ENDBRANCH  11  22
BRANCH  12  39
HETATM   39  C6  SGN C   3      31.061  73.911  13.951  1.00 42.65     0.227 C 
BRANCH  39  40
HETATM   40  O6  SGN C   3      30.340  72.678  14.158  1.00 51.09    -0.254 OA
BRANCH  40  41
HETATM   41  S2  SGN C   3      30.895  71.395  13.387  1.00 54.80     0.251 S 
HETATM   42  O4S SGN C   3      30.046  71.193  12.198  1.00 54.99    -0.572 OA
HETATM   43  O5S SGN C   3      30.797  70.249  14.339  1.00 53.99    -0.572 OA
HETATM   44  O6S SGN C   3      32.275  71.686  13.021  1.00 55.43    -0.572 OA
ENDBRANCH  40  41
ENDBRANCH  39  40
ENDBRANCH  12  39
ENDBRANCH   7   8
ENDBRANCH   4   7
BRANCH   3  45
HETATM   45  O3  IDS C   2      33.549  71.252  15.457  1.00 39.65    -0.390 OA
ATOM     46  H3  IDS C   2      33.219  72.081  15.131  1.00  0.00     0.210 HD
ENDBRANCH   3  45
BRANCH   5  47
HETATM   47  C6  IDS C   2      31.315  71.849  19.846  1.00 36.10     0.206 C 
HETATM   48  O6A IDS C   2      30.088  71.697  19.658  1.00 32.44    -0.646 OA
HETATM   49  O6B IDS C   2      31.803  72.525  20.783  1.00 33.44    -0.646 OA
ENDBRANCH   5  47
BRANCH   2  50
HETATM   50  O2  IDS C   2      35.346  69.530  16.715  1.00 43.59    -0.244 OA
BRANCH  50  51
HETATM   51  S   IDS C   2      36.746  70.222  17.047  1.00 44.11     0.252 S 
HETATM   52  O1S IDS C   2      37.500  69.274  17.936  1.00 44.48    -0.572 OA
HETATM   53  O2S IDS C   2      36.447  71.502  17.724  1.00 44.29    -0.572 OA
HETATM   54  O3S IDS C   2      37.424  70.430  15.780  1.00 44.74    -0.572 OA
ENDBRANCH  50  51
ENDBRANCH   2  50
BRANCH   1  55
HETATM   55  O4  SGN C   1      34.176  68.789  19.477  1.00 44.73    -0.348 OA
BRANCH  55  56
HETATM   56  C4  SGN C   1      35.183  68.258  20.367  1.00 48.25     0.186 C 
HETATM   57  C3  SGN C   1      35.713  69.375  21.275  1.00 48.43     0.178 C 
HETATM   58  C2  SGN C   1      36.663  68.794  22.321  1.00 48.58     0.181 C 
HETATM   59  C1  SGN C   1      36.017  67.641  23.088  1.00 50.40     0.283 C 
HETATM   60  O5  SGN C   1      35.551  66.641  22.174  1.00 50.82    -0.349 OA
HETATM   61  C5  SGN C   1      34.573  67.145  21.235  1.00 51.58     0.181 C 
BRANCH  57  62
HETATM   62  O3  SGN C   1      36.404  70.342  20.500  1.00 46.09    -0.391 OA
ATOM     63  H3  SGN C   1      37.030  70.797  21.051  1.00  0.00     0.210 HD
ENDBRANCH  57  62
BRANCH  58  64
HETATM   64  N2  SGN C   1      37.083  69.822  23.250  1.00 48.56    -0.289 N 
ATOM     65  H2  SGN C   1      36.508  70.637  23.467  1.00  0.00     0.175 HD
BRANCH  64  66
HETATM   66  S1  SGN C   1      38.569  69.569  23.932  1.00 47.67     0.205 S 
HETATM   67  O1S SGN C   1      39.259  68.570  23.087  1.00 47.59    -0.578 OA
HETATM   68  O2S SGN C   1      38.298  69.068  25.283  1.00 48.55    -0.578 OA
HETATM   69  O3S SGN C   1      39.260  70.876  23.939  1.00 47.08    -0.578 OA
ENDBRANCH  64  66
ENDBRANCH  58  64
BRANCH  59  70
HETATM   70  O1  SGN C   1      34.937  68.110  23.821  1.00 51.36    -0.369 OA
ATOM     71  H1  SGN C   1      34.377  68.641  23.268  1.00  0.00     0.212 HD
ENDBRANCH  59  70
BRANCH  61  72
HETATM   72  C6  SGN C   1      34.106  65.964  20.422  1.00 55.48     0.227 C 
BRANCH  72  73
HETATM   73  O6  SGN C   1      34.772  64.768  20.882  1.00 61.59    -0.254 OA
BRANCH  73  74
HETATM   74  S2  SGN C   1      33.805  63.621  21.422  1.00 65.98     0.251 S 
HETATM   75  O4S SGN C   1      34.687  62.428  21.799  1.00 65.09    -0.572 OA
HETATM   76  O5S SGN C   1      32.898  63.299  20.335  1.00 65.58    -0.572 OA
HETATM   77  O6S SGN C   1      33.049  64.200  22.658  1.00 65.84    -0.572 OA
ENDBRANCH  73  74
ENDBRANCH  72  73
ENDBRANCH  61  72
ENDBRANCH  55  56
ENDBRANCH   1  55
TORSDOF 27
ENDMDL
MODEL 80
REMARK VINA RESULT:      -5.0     13.331     18.786
REMARK  27 active torsions:
REMARK  status: ('A' for Active; 'I' for Inactive)
REMARK    1  A    between atoms: C1_1  and  O1_2 
REMARK    2  A    between atoms: S1_5  and  N2_7 
REMARK    3  A    between atoms: C2_6  and  N2_7 
REMARK    4  A    between atoms: S2_10  and  O6_22 
REMARK    5  A    between atoms: C3_11  and  O3_12 
REMARK    6  A    between atoms: C4_15  and  O4_16 
REMARK    7  A    between atoms: O4_16  and  C1_24 
REMARK    8  A    between atoms: C5_18  and  C6_21 
REMARK    9  A    between atoms: C6_21  and  O6_22 
REMARK   10  A    between atoms: C2_26  and  O2_27 
REMARK   11  A    between atoms: O2_27  and  S_40 
REMARK   12  A    between atoms: C3_29  and  O3_30 
REMARK   13  A    between atoms: C4_33  and  O4_34 
REMARK   14  A    between atoms: O4_34  and  C1_41 
REMARK   15  A    between atoms: C5_35  and  C6_37 
REMARK   16  A    between atoms: S1_43  and  N2_45 
REMARK   17  A    between atoms: C2_44  and  N2_45 
REMARK   18  A    between atoms: S2_48  and  O6_60 
REMARK   19  A    between atoms: C3_49  and  O3_50 
REMARK   20  A    between atoms: C4_53  and  O4_54 
REMARK   21  A    between atoms: O4_54  and  C1_62 
REMARK   22  A    between atoms: C5_56  and  C6_59 
REMARK   23  A    between atoms: C6_59  and  O6_60 
REMARK   24  A    between atoms: C2_64  and  O2_65 
REMARK   25  A    between atoms: O2_65  and  S_77 
REMARK   26  A    between atoms: C3_67  and  O3_68 
REMARK   27  A    between atoms: C5_72  and  C6_74 
ROOT
HETATM    1  C1  IDS C   2      26.516  88.206  12.133  1.00 40.81     0.294 C 
HETATM    2  C2  IDS C   2      27.151  87.145  13.035  1.00 40.20     0.231 C 
HETATM    3  C3  IDS C   2      27.010  85.753  12.426  1.00 39.01     0.185 C 
HETATM    4  C4  IDS C   2      25.526  85.381  12.233  1.00 37.65     0.195 C 
HETATM    5  C5  IDS C   2      24.670  86.654  12.205  1.00 35.99     0.257 C 
HETATM    6  O5  IDS C   2      25.354  87.684  11.452  1.00 39.00    -0.340 OA
ENDROOT
BRANCH   4   7
HETATM    7  O4  IDS C   2      25.361  84.645  10.996  1.00 35.98    -0.348 OA
BRANCH   7   8
HETATM    8  C1  SGN C   3      26.236  83.567  10.798  1.00 35.40     0.287 C 
HETATM    9  C2  SGN C   3      25.706  82.652   9.680  1.00 33.71     0.182 C 
HETATM   10  C3  SGN C   3      24.491  81.830  10.126  1.00 35.79     0.178 C 
HETATM   11  C4  SGN C   3      24.713  81.176  11.501  1.00 36.62     0.186 C 
HETATM   12  C5  SGN C   3      25.238  82.207  12.492  1.00 39.32     0.181 C 
HETATM   13  O5  SGN C   3      26.438  82.817  11.983  1.00 37.58    -0.349 OA
BRANCH   9  14
HETATM   14  N2  SGN C   3      25.330  83.455   8.537  1.00 29.28    -0.289 N 
ATOM     15  H2  SGN C   3      24.642  84.204   8.621  1.00  0.00     0.175 HD
BRANCH  14  16
HETATM   16  S1  SGN C   3      26.053  83.116   7.091  1.00 27.84     0.205 S 
HETATM   17  O1S SGN C   3      25.041  83.421   6.097  1.00 27.65    -0.578 OA
HETATM   18  O2S SGN C   3      26.384  81.662   7.150  1.00 27.72    -0.578 OA
HETATM   19  O3S SGN C   3      27.277  83.964   6.937  1.00 28.50    -0.578 OA
ENDBRANCH  14  16
ENDBRANCH   9  14
BRANCH  10  20
HETATM   20  O3  SGN C   3      24.208  80.831   9.149  1.00 34.89    -0.391 OA
ATOM     21  H3  SGN C   3      23.268  80.769   9.023  1.00  0.00     0.210 HD
ENDBRANCH  10  20
BRANCH  11  22
HETATM   22  O4  SGN C   3      23.459  80.668  11.991  1.00 37.13    -0.348 OA
BRANCH  22  23
HETATM   23  C1  UAP C   4      22.378  81.524  11.852  1.00 39.64     0.294 C 
HETATM   24  C2  UAP C   4      21.178  80.766  11.311  1.00 38.70     0.228 C 
HETATM   25  C3  UAP C   4      20.018  81.727  11.067  1.00 38.51     0.156 C 
HETATM   26  C4  UAP C   4      19.825  82.815  12.223  1.00 38.14     0.077 C 
HETATM   27  C5  UAP C   4      20.868  82.867  13.160  1.00 38.51     0.228 C 
HETATM   28  O5  UAP C   4      22.062  82.034  13.141  1.00 37.46    -0.343 OA
BRANCH  24  29
HETATM   29  O2  UAP C   4      21.511  80.150  10.025  1.00 40.54    -0.244 OA
BRANCH  29  30
HETATM   30  S   UAP C   4      21.550  78.559   9.858  1.00 40.49     0.252 S 
HETATM   31  O1S UAP C   4      20.467  78.199   8.930  1.00 40.89    -0.572 OA
HETATM   32  O2S UAP C   4      21.332  77.986  11.195  1.00 37.88    -0.572 OA
HETATM   33  O3S UAP C   4      22.874  78.213   9.319  1.00 37.47    -0.572 OA
ENDBRANCH  29  30
ENDBRANCH  24  29
BRANCH  25  34
HETATM   34  O3  UAP C   4      18.822  80.979  10.923  1.00 38.58    -0.393 OA
ATOM     35  H3  UAP C   4      19.038  80.055  10.886  1.00  0.00     0.210 HD
ENDBRANCH  25  34
BRANCH  27  36
HETATM   36  C6  UAP C   4      20.847  83.788  14.330  1.00 37.96     0.203 C 
HETATM   37  O6A UAP C   4      19.760  84.308  14.650  1.00 40.05    -0.646 OA
HETATM   38  O6B UAP C   4      21.919  84.000  14.935  1.00 36.71    -0.646 OA
ENDBRANCH  27  36
ENDBRANCH  22  23
ENDBRANCH  11  22
BRANCH  12  39
HETATM   39  C6  SGN C   3      25.568  81.648  13.848  1.00 42.65     0.227 C 
BRANCH  39  40
HETATM   40  O6  SGN C   3      26.995  81.811  14.001  1.00 51.09    -0.254 OA
BRANCH  40  41
HETATM   41  S2  SGN C   3      27.835  80.481  14.268  1.00 54.80     0.251 S 
HETATM   42  O4S SGN C   3      29.076  80.874  14.960  1.00 54.99    -0.572 OA
HETATM   43  O5S SGN C   3      28.114  79.877  12.931  1.00 53.99    -0.572 OA
HETATM   44  O6S SGN C   3      27.006  79.616  15.097  1.00 55.43    -0.572 OA
ENDBRANCH  40  41
ENDBRANCH  39  40
ENDBRANCH  12  39
ENDBRANCH   7   8
ENDBRANCH   4   7
BRANCH   3  45
HETATM   45  O3  IDS C   2      27.640  84.800  13.272  1.00 39.65    -0.390 OA
ATOM     46  H3  IDS C   2      27.363  83.926  13.025  1.00  0.00     0.210 HD
ENDBRANCH   3  45
BRANCH   5  47
HETATM   47  C6  IDS C   2      23.281  86.482  11.606  1.00 36.10     0.206 C 
HETATM   48  O6A IDS C   2      22.984  87.189  10.617  1.00 32.44    -0.646 OA
HETATM   49  O6B IDS C   2      22.512  85.634  12.118  1.00 33.44    -0.646 OA
ENDBRANCH   5  47
BRANCH   2  50
HETATM   50  O2  IDS C   2      28.571  87.428  13.201  1.00 43.59    -0.244 OA
BRANCH  50  51
HETATM   51  S   IDS C   2      29.550  87.319  11.945  1.00 44.11     0.252 S 
HETATM   52  O1S IDS C   2      30.801  86.640  12.426  1.00 44.48    -0.572 OA
HETATM   53  O2S IDS C   2      29.809  88.697  11.476  1.00 44.29    -0.572 OA
HETATM   54  O3S IDS C   2      28.859  86.530  10.940  1.00 44.74    -0.572 OA
ENDBRANCH  50  51
ENDBRANCH   2  50
BRANCH   1  55
HETATM   55  O4  SGN C   1      26.126  89.294  12.902  1.00 44.73    -0.348 OA
BRANCH  55  56
HETATM   56  C4  SGN C   1      26.012  90.574  12.243  1.00 48.25     0.186 C 
HETATM   57  C3  SGN C   1      24.538  90.991  12.169  1.00 48.43     0.178 C 
HETATM   58  C2  SGN C   1      24.421  92.410  11.615  1.00 48.58     0.181 C 
HETATM   59  C1  SGN C   1      25.292  93.392  12.397  1.00 50.40     0.283 C 
HETATM   60  O5  SGN C   1      26.650  92.936  12.419  1.00 50.82    -0.349 OA
HETATM   61  C5  SGN C   1      26.800  91.634  13.031  1.00 51.58     0.181 C 
BRANCH  57  62
HETATM   62  O3  SGN C   1      23.825  90.099  11.328  1.00 46.09    -0.391 OA
ATOM     63  H3  SGN C   1      24.405  89.401  11.046  1.00  0.00     0.210 HD
ENDBRANCH  57  62
BRANCH  58  64
HETATM   64  N2  SGN C   1      23.042  92.852  11.646  1.00 48.56    -0.289 N 
ATOM     65  H2  SGN C   1      22.392  92.579  12.382  1.00  0.00     0.175 HD
BRANCH  64  66
HETATM   66  S1  SGN C   1      22.608  93.836  10.388  1.00 47.67     0.205 S 
HETATM   67  O1S SGN C   1      22.639  95.222  10.903  1.00 47.59    -0.578 OA
HETATM   68  O2S SGN C   1      21.257  93.409  10.008  1.00 48.55    -0.578 OA
HETATM   69  O3S SGN C   1      23.598  93.610   9.313  1.00 47.08    -0.578 OA
ENDBRANCH  64  66
ENDBRANCH  58  64
BRANCH  59  70
HETATM   70  O1  SGN C   1      24.836  93.490  13.703  1.00 51.36    -0.369 OA
ATOM     71  H1  SGN C   1      23.941  93.177  13.758  1.00  0.00     0.212 HD
ENDBRANCH  59  70
BRANCH  61  72
HETATM   72  C6  SGN C   1      28.280  91.346  13.074  1.00 55.48     0.227 C 
BRANCH  72  73
HETATM   73  O6  SGN C   1      28.959  92.410  13.775  1.00 61.59    -0.254 OA
BRANCH  73  74
HETATM   74  S2  SGN C   1      30.310  92.913  13.097  1.00 65.98     0.251 S 
HETATM   75  O4S SGN C   1      31.406  92.840  14.163  1.00 65.09    -0.572 OA
HETATM   76  O5S SGN C   1      30.071  94.277  12.661  1.00 65.58    -0.572 OA
HETATM   77  O6S SGN C   1      30.603  91.962  11.894  1.00 65.84    -0.572 OA
ENDBRANCH  73  74
ENDBRANCH  72  73
ENDBRANCH  61  72
ENDBRANCH  55  56
ENDBRANCH   1  55
TORSDOF 27
ENDMDL
MODEL 81
REMARK VINA RESULT:      -5.0     13.029     19.999
REMARK  27 active torsions:
REMARK  status: ('A' for Active; 'I' for Inactive)
REMARK    1  A    between atoms: C1_1  and  O1_2 
REMARK    2  A    between atoms: S1_5  and  N2_7 
REMARK    3  A    between atoms: C2_6  and  N2_7 
REMARK    4  A    between atoms: S2_10  and  O6_22 
REMARK    5  A    between atoms: C3_11  and  O3_12 
REMARK    6  A    between atoms: C4_15  and  O4_16 
REMARK    7  A    between atoms: O4_16  and  C1_24 
REMARK    8  A    between atoms: C5_18  and  C6_21 
REMARK    9  A    between atoms: C6_21  and  O6_22 
REMARK   10  A    between atoms: C2_26  and  O2_27 
REMARK   11  A    between atoms: O2_27  and  S_40 
REMARK   12  A    between atoms: C3_29  and  O3_30 
REMARK   13  A    between atoms: C4_33  and  O4_34 
REMARK   14  A    between atoms: O4_34  and  C1_41 
REMARK   15  A    between atoms: C5_35  and  C6_37 
REMARK   16  A    between atoms: S1_43  and  N2_45 
REMARK   17  A    between atoms: C2_44  and  N2_45 
REMARK   18  A    between atoms: S2_48  and  O6_60 
REMARK   19  A    between atoms: C3_49  and  O3_50 
REMARK   20  A    between atoms: C4_53  and  O4_54 
REMARK   21  A    between atoms: O4_54  and  C1_62 
REMARK   22  A    between atoms: C5_56  and  C6_59 
REMARK   23  A    between atoms: C6_59  and  O6_60 
REMARK   24  A    between atoms: C2_64  and  O2_65 
REMARK   25  A    between atoms: O2_65  and  S_77 
REMARK   26  A    between atoms: C3_67  and  O3_68 
REMARK   27  A    between atoms: C5_72  and  C6_74 
ROOT
HETATM    1  C1  IDS C   2      23.212  85.100  11.795  1.00 40.81     0.294 C 
HETATM    2  C2  IDS C   2      22.533  86.384  12.277  1.00 40.20     0.231 C 
HETATM    3  C3  IDS C   2      23.196  87.616  11.669  1.00 39.01     0.185 C 
HETATM    4  C4  IDS C   2      24.685  87.694  12.062  1.00 37.65     0.195 C 
HETATM    5  C5  IDS C   2      25.186  86.306  12.482  1.00 35.99     0.257 C 
HETATM    6  O5  IDS C   2      24.630  85.300  11.601  1.00 39.00    -0.340 OA
ENDROOT
BRANCH   4   7
HETATM    7  O4  IDS C   2      25.463  88.185  10.942  1.00 35.98    -0.348 OA
BRANCH   7   8
HETATM    8  C1  SGN C   3      25.457  89.573  10.748  1.00 35.40     0.287 C 
HETATM    9  C2  SGN C   3      26.174  89.928   9.433  1.00 33.71     0.182 C 
HETATM   10  C3  SGN C   3      27.694  89.758   9.535  1.00 35.79     0.178 C 
HETATM   11  C4  SGN C   3      28.259  90.392  10.818  1.00 36.62     0.186 C 
HETATM   12  C5  SGN C   3      27.442  89.947  12.025  1.00 39.32     0.181 C 
HETATM   13  O5  SGN C   3      26.054  90.268  11.828  1.00 37.58    -0.349 OA
BRANCH   9  14
HETATM   14  N2  SGN C   3      25.682  89.079   8.370  1.00 29.28    -0.289 N 
ATOM     15  H2  SGN C   3      25.720  88.063   8.446  1.00  0.00     0.175 HD
BRANCH  14  16
HETATM   16  S1  SGN C   3      25.056  89.815   7.030  1.00 27.84     0.205 S 
HETATM   17  O1S SGN C   3      24.193  88.812   6.434  1.00 27.65    -0.578 OA
HETATM   18  O2S SGN C   3      26.236  90.142   6.176  1.00 27.72    -0.578 OA
HETATM   19  O3S SGN C   3      24.305  91.042   7.441  1.00 28.50    -0.578 OA
ENDBRANCH  14  16
ENDBRANCH   9  14
BRANCH  10  20
HETATM   20  O3  SGN C   3      28.315  90.337   8.390  1.00 34.89    -0.391 OA
ATOM     21  H3  SGN C   3      28.131  89.803   7.626  1.00  0.00     0.210 HD
ENDBRANCH  10  20
BRANCH  11  22
HETATM   22  O4  SGN C   3      29.619  89.959  11.001  1.00 37.13    -0.348 OA
BRANCH  22  23
HETATM   23  C1  UAP C   4      29.891  88.666  10.582  1.00 39.64     0.294 C 
HETATM   24  C2  UAP C   4      31.097  88.659   9.661  1.00 38.70     0.228 C 
HETATM   25  C3  UAP C   4      31.337  87.251   9.123  1.00 38.51     0.156 C 
HETATM   26  C4  UAP C   4      31.158  86.101  10.219  1.00 38.14     0.077 C 
HETATM   27  C5  UAP C   4      30.597  86.528  11.431  1.00 38.51     0.228 C 
HETATM   28  O5  UAP C   4      30.183  87.890  11.736  1.00 37.46    -0.343 OA
BRANCH  24  29
HETATM   29  O2  UAP C   4      30.856  89.529   8.509  1.00 40.54    -0.244 OA
BRANCH  29  30
HETATM   30  S   UAP C   4      31.886  90.692   8.123  1.00 40.49     0.252 S 
HETATM   31  O1S UAP C   4      32.888  90.097   7.227  1.00 40.89    -0.572 OA
HETATM   32  O2S UAP C   4      32.490  91.158   9.379  1.00 37.88    -0.572 OA
HETATM   33  O3S UAP C   4      31.112  91.752   7.456  1.00 37.47    -0.572 OA
ENDBRANCH  29  30
ENDBRANCH  24  29
BRANCH  25  34
HETATM   34  O3  UAP C   4      32.646  87.181   8.580  1.00 38.58    -0.393 OA
ATOM     35  H3  UAP C   4      33.023  88.053   8.568  1.00  0.00     0.210 HD
ENDBRANCH  25  34
BRANCH  27  36
HETATM   36  C6  UAP C   4      30.390  85.609  12.585  1.00 37.96     0.203 C 
HETATM   37  O6A UAP C   4      30.503  86.074  13.736  1.00 40.05    -0.646 OA
HETATM   38  O6B UAP C   4      30.116  84.413  12.347  1.00 36.71    -0.646 OA
ENDBRANCH  27  36
ENDBRANCH  22  23
ENDBRANCH  11  22
BRANCH  12  39
HETATM   39  C6  SGN C   3      27.863  90.580  13.322  1.00 42.65     0.227 C 
BRANCH  39  40
HETATM   40  O6  SGN C   3      28.609  89.565  14.028  1.00 51.09    -0.254 OA
BRANCH  40  41
HETATM   41  S2  SGN C   3      29.877  90.067  14.857  1.00 54.80     0.251 S 
HETATM   42  O4S SGN C   3      30.771  88.909  15.041  1.00 54.99    -0.572 OA
HETATM   43  O5S SGN C   3      29.359  90.579  16.160  1.00 53.99    -0.572 OA
HETATM   44  O6S SGN C   3      30.509  91.117  14.069  1.00 55.43    -0.572 OA
ENDBRANCH  40  41
ENDBRANCH  39  40
ENDBRANCH  12  39
ENDBRANCH   7   8
ENDBRANCH   4   7
BRANCH   3  45
HETATM   45  O3  IDS C   2      22.519  88.785  12.111  1.00 39.65    -0.390 OA
ATOM     46  H3  IDS C   2      21.786  88.964  11.535  1.00  0.00     0.210 HD
ENDBRANCH   3  45
BRANCH   5  47
HETATM   47  C6  IDS C   2      26.699  86.141  12.481  1.00 36.10     0.206 C 
HETATM   48  O6A IDS C   2      27.208  85.455  11.568  1.00 32.44    -0.646 OA
HETATM   49  O6B IDS C   2      27.361  86.711  13.382  1.00 33.44    -0.646 OA
ENDBRANCH   5  47
BRANCH   2  50
HETATM   50  O2  IDS C   2      21.131  86.376  11.879  1.00 43.59    -0.244 OA
BRANCH  50  51
HETATM   51  S   IDS C   2      19.994  86.450  12.997  1.00 44.11     0.252 S 
HETATM   52  O1S IDS C   2      18.719  85.984  12.351  1.00 44.48    -0.572 OA
HETATM   53  O2S IDS C   2      19.911  87.858  13.440  1.00 44.29    -0.572 OA
HETATM   54  O3S IDS C   2      20.405  85.570  14.076  1.00 44.74    -0.572 OA
ENDBRANCH  50  51
ENDBRANCH   2  50
BRANCH   1  55
HETATM   55  O4  SGN C   1      23.033  84.099  12.740  1.00 44.73    -0.348 OA
BRANCH  55  56
HETATM   56  C4  SGN C   1      23.652  82.819  12.485  1.00 48.25     0.186 C 
HETATM   57  C3  SGN C   1      24.653  82.495  13.601  1.00 48.43     0.178 C 
HETATM   58  C2  SGN C   1      25.197  81.078  13.424  1.00 48.58     0.181 C 
HETATM   59  C1  SGN C   1      24.069  80.055  13.303  1.00 50.40     0.283 C 
HETATM   60  O5  SGN C   1      23.180  80.424  12.241  1.00 50.82    -0.349 OA
HETATM   61  C5  SGN C   1      22.574  81.722  12.436  1.00 51.58     0.181 C 
BRANCH  57  62
HETATM   62  O3  SGN C   1      25.730  83.418  13.568  1.00 46.09    -0.391 OA
ATOM     63  H3  SGN C   1      25.412  84.260  13.261  1.00  0.00     0.210 HD
ENDBRANCH  57  62
BRANCH  58  64
HETATM   64  N2  SGN C   1      26.058  80.724  14.533  1.00 48.56    -0.289 N 
ATOM     65  H2  SGN C   1      25.703  80.562  15.476  1.00  0.00     0.175 HD
BRANCH  64  66
HETATM   66  S1  SGN C   1      27.662  80.605  14.148  1.00 47.67     0.205 S 
HETATM   67  O1S SGN C   1      28.204  81.982  14.155  1.00 47.59    -0.578 OA
HETATM   68  O2S SGN C   1      27.699  79.994  12.816  1.00 48.55    -0.578 OA
HETATM   69  O3S SGN C   1      28.283  79.749  15.182  1.00 47.08    -0.578 OA
ENDBRANCH  64  66
ENDBRANCH  58  64
BRANCH  59  70
HETATM   70  O1  SGN C   1      23.348  80.004  14.487  1.00 51.36    -0.369 OA
ATOM     71  H1  SGN C   1      22.489  79.633  14.326  1.00  0.00     0.212 HD
ENDBRANCH  59  70
BRANCH  61  72
HETATM   72  C6  SGN C   1      21.597  81.917  11.304  1.00 55.48     0.227 C 
BRANCH  72  73
HETATM   73  O6  SGN C   1      21.476  80.689  10.554  1.00 61.59    -0.254 OA
BRANCH  73  74
HETATM   74  S2  SGN C   1      20.108  79.900  10.767  1.00 65.98     0.251 S 
HETATM   75  O4S SGN C   1      20.167  78.649   9.886  1.00 65.09    -0.572 OA
HETATM   76  O5S SGN C   1      19.044  80.798  10.357  1.00 65.58    -0.572 OA
HETATM   77  O6S SGN C   1      20.014  79.541  12.283  1.00 65.84    -0.572 OA
ENDBRANCH  73  74
ENDBRANCH  72  73
ENDBRANCH  61  72
ENDBRANCH  55  56
ENDBRANCH   1  55
TORSDOF 27
ENDMDL
MODEL 82
REMARK VINA RESULT:      -4.9      4.747     10.119
REMARK  27 active torsions:
REMARK  status: ('A' for Active; 'I' for Inactive)
REMARK    1  A    between atoms: C1_1  and  O1_2 
REMARK    2  A    between atoms: S1_5  and  N2_7 
REMARK    3  A    between atoms: C2_6  and  N2_7 
REMARK    4  A    between atoms: S2_10  and  O6_22 
REMARK    5  A    between atoms: C3_11  and  O3_12 
REMARK    6  A    between atoms: C4_15  and  O4_16 
REMARK    7  A    between atoms: O4_16  and  C1_24 
REMARK    8  A    between atoms: C5_18  and  C6_21 
REMARK    9  A    between atoms: C6_21  and  O6_22 
REMARK   10  A    between atoms: C2_26  and  O2_27 
REMARK   11  A    between atoms: O2_27  and  S_40 
REMARK   12  A    between atoms: C3_29  and  O3_30 
REMARK   13  A    between atoms: C4_33  and  O4_34 
REMARK   14  A    between atoms: O4_34  and  C1_41 
REMARK   15  A    between atoms: C5_35  and  C6_37 
REMARK   16  A    between atoms: S1_43  and  N2_45 
REMARK   17  A    between atoms: C2_44  and  N2_45 
REMARK   18  A    between atoms: S2_48  and  O6_60 
REMARK   19  A    between atoms: C3_49  and  O3_50 
REMARK   20  A    between atoms: C4_53  and  O4_54 
REMARK   21  A    between atoms: O4_54  and  C1_62 
REMARK   22  A    between atoms: C5_56  and  C6_59 
REMARK   23  A    between atoms: C6_59  and  O6_60 
REMARK   24  A    between atoms: C2_64  and  O2_65 
REMARK   25  A    between atoms: O2_65  and  S_77 
REMARK   26  A    between atoms: C3_67  and  O3_68 
REMARK   27  A    between atoms: C5_72  and  C6_74 
ROOT
HETATM    1  C1  IDS C   2      31.544  71.118  12.302  1.00 40.81     0.294 C 
HETATM    2  C2  IDS C   2      30.393  72.121  12.405  1.00 40.20     0.231 C 
HETATM    3  C3  IDS C   2      30.694  73.196  13.446  1.00 39.01     0.185 C 
HETATM    4  C4  IDS C   2      30.904  72.572  14.840  1.00 37.65     0.195 C 
HETATM    5  C5  IDS C   2      31.266  71.088  14.698  1.00 35.99     0.257 C 
HETATM    6  O5  IDS C   2      32.175  70.912  13.585  1.00 39.00    -0.340 OA
ENDROOT
BRANCH   4   7
HETATM    7  O4  IDS C   2      31.961  73.275  15.539  1.00 35.98    -0.348 OA
BRANCH   7   8
HETATM    8  C1  SGN C   3      31.714  74.624  15.833  1.00 35.40     0.287 C 
HETATM    9  C2  SGN C   3      33.035  75.414  15.844  1.00 33.71     0.182 C 
HETATM   10  C3  SGN C   3      33.889  75.104  17.079  1.00 35.79     0.178 C 
HETATM   11  C4  SGN C   3      33.060  75.136  18.374  1.00 36.62     0.186 C 
HETATM   12  C5  SGN C   3      31.789  74.313  18.202  1.00 39.32     0.181 C 
HETATM   13  O5  SGN C   3      31.041  74.789  17.068  1.00 37.58    -0.349 OA
BRANCH   9  14
HETATM   14  N2  SGN C   3      33.799  75.093  14.658  1.00 29.28    -0.289 N 
ATOM     15  H2  SGN C   3      33.771  74.160  14.248  1.00  0.00     0.175 HD
BRANCH  14  16
HETATM   16  S1  SGN C   3      34.718  76.292  13.991  1.00 27.84     0.205 S 
HETATM   17  O1S SGN C   3      36.076  75.980  14.398  1.00 27.65    -0.578 OA
HETATM   18  O2S SGN C   3      34.211  77.559  14.598  1.00 27.72    -0.578 OA
HETATM   19  O3S SGN C   3      34.552  76.278  12.504  1.00 28.50    -0.578 OA
ENDBRANCH  14  16
ENDBRANCH   9  14
BRANCH  10  20
HETATM   20  O3  SGN C   3      34.962  76.040  17.162  1.00 34.89    -0.391 OA
ATOM     21  H3  SGN C   3      34.633  76.870  17.487  1.00  0.00     0.210 HD
ENDBRANCH  10  20
BRANCH  11  22
HETATM   22  O4  SGN C   3      33.833  74.566  19.445  1.00 37.13    -0.348 OA
BRANCH  22  23
HETATM   23  C1  UAP C   4      34.520  73.404  19.127  1.00 39.64     0.294 C 
HETATM   24  C2  UAP C   4      35.900  73.425  19.758  1.00 38.70     0.228 C 
HETATM   25  C3  UAP C   4      36.691  72.192  19.328  1.00 38.51     0.156 C 
HETATM   26  C4  UAP C   4      35.833  70.843  19.321  1.00 38.14     0.077 C 
HETATM   27  C5  UAP C   4      34.452  71.025  19.488  1.00 38.51     0.228 C 
HETATM   28  O5  UAP C   4      33.784  72.308  19.655  1.00 37.46    -0.343 OA
BRANCH  24  29
HETATM   29  O2  UAP C   4      36.644  74.600  19.301  1.00 40.54    -0.244 OA
BRANCH  29  30
HETATM   30  S   UAP C   4      37.615  74.519  18.030  1.00 40.49     0.252 S 
HETATM   31  O1S UAP C   4      36.953  73.657  17.040  1.00 40.89    -0.572 OA
HETATM   32  O2S UAP C   4      38.880  73.934  18.499  1.00 37.88    -0.572 OA
HETATM   33  O3S UAP C   4      37.792  75.893  17.533  1.00 37.47    -0.572 OA
ENDBRANCH  29  30
ENDBRANCH  24  29
BRANCH  25  34
HETATM   34  O3  UAP C   4      37.805  72.034  20.192  1.00 38.58    -0.393 OA
ATOM     35  H3  UAP C   4      38.598  71.996  19.670  1.00  0.00     0.210 HD
ENDBRANCH  25  34
BRANCH  27  36
HETATM   36  C6  UAP C   4      33.496  69.885  19.548  1.00 37.96     0.203 C 
HETATM   37  O6A UAP C   4      32.517  69.977  20.315  1.00 40.05    -0.646 OA
HETATM   38  O6B UAP C   4      33.719  68.887  18.830  1.00 36.71    -0.646 OA
ENDBRANCH  27  36
ENDBRANCH  22  23
ENDBRANCH  11  22
BRANCH  12  39
HETATM   39  C6  SGN C   3      30.865  74.349  19.387  1.00 42.65     0.227 C 
BRANCH  39  40
HETATM   40  O6  SGN C   3      29.919  75.405  19.113  1.00 51.09    -0.254 OA
BRANCH  40  41
HETATM   41  S2  SGN C   3      29.453  76.280  20.363  1.00 54.80     0.251 S 
HETATM   42  O4S SGN C   3      30.657  76.602  21.151  1.00 54.99    -0.572 OA
HETATM   43  O5S SGN C   3      28.492  75.440  21.138  1.00 53.99    -0.572 OA
HETATM   44  O6S SGN C   3      28.821  77.479  19.828  1.00 55.43    -0.572 OA
ENDBRANCH  40  41
ENDBRANCH  39  40
ENDBRANCH  12  39
ENDBRANCH   7   8
ENDBRANCH   4   7
BRANCH   3  45
HETATM   45  O3  IDS C   2      29.621  74.126  13.491  1.00 39.65    -0.390 OA
ATOM     46  H3  IDS C   2      28.795  73.659  13.451  1.00  0.00     0.210 HD
ENDBRANCH   3  45
BRANCH   5  47
HETATM   47  C6  IDS C   2      31.908  70.461  15.928  1.00 36.10     0.206 C 
HETATM   48  O6A IDS C   2      33.153  70.347  15.938  1.00 32.44    -0.646 OA
HETATM   49  O6B IDS C   2      31.163  70.107  16.873  1.00 33.44    -0.646 OA
ENDBRANCH   5  47
BRANCH   2  50
HETATM   50  O2  IDS C   2      30.194  72.775  11.118  1.00 43.59    -0.244 OA
BRANCH  50  51
HETATM   51  S   IDS C   2      31.396  73.588  10.453  1.00 44.11     0.252 S 
HETATM   52  O1S IDS C   2      31.948  74.495  11.517  1.00 44.48    -0.572 OA
HETATM   53  O2S IDS C   2      30.831  74.344   9.315  1.00 44.29    -0.572 OA
HETATM   54  O3S IDS C   2      32.376  72.610  10.016  1.00 44.74    -0.572 OA
ENDBRANCH  50  51
ENDBRANCH   2  50
BRANCH   1  55
HETATM   55  O4  SGN C   1      31.057  69.900  11.849  1.00 44.73    -0.348 OA
BRANCH  55  56
HETATM   56  C4  SGN C   1      31.865  69.165  10.903  1.00 48.25     0.186 C 
HETATM   57  C3  SGN C   1      32.430  67.906  11.571  1.00 48.43     0.178 C 
HETATM   58  C2  SGN C   1      33.156  67.044  10.538  1.00 48.58     0.181 C 
HETATM   59  C1  SGN C   1      32.267  66.746   9.332  1.00 50.40     0.283 C 
HETATM   60  O5  SGN C   1      31.781  67.968   8.763  1.00 50.82    -0.349 OA
HETATM   61  C5  SGN C   1      31.005  68.756   9.695  1.00 51.58     0.181 C 
BRANCH  57  62
HETATM   62  O3  SGN C   1      33.338  68.269  12.599  1.00 46.09    -0.391 OA
ATOM     63  H3  SGN C   1      32.889  68.251  13.436  1.00  0.00     0.210 HD
ENDBRANCH  57  62
BRANCH  58  64
HETATM   64  N2  SGN C   1      33.597  65.801  11.137  1.00 48.56    -0.289 N 
ATOM     65  H2  SGN C   1      32.950  65.123  11.539  1.00  0.00     0.175 HD
BRANCH  64  66
HETATM   66  S1  SGN C   1      35.236  65.571  11.115  1.00 47.67     0.205 S 
HETATM   67  O1S SGN C   1      35.501  64.329  11.873  1.00 47.59    -0.578 OA
HETATM   68  O2S SGN C   1      35.805  66.756  11.765  1.00 48.55    -0.578 OA
HETATM   69  O3S SGN C   1      35.628  65.460   9.693  1.00 47.08    -0.578 OA
ENDBRANCH  64  66
ENDBRANCH  58  64
BRANCH  59  70
HETATM   70  O1  SGN C   1      31.182  65.977   9.725  1.00 51.36    -0.369 OA
ATOM     71  H1  SGN C   1      30.748  65.616   8.960  1.00  0.00     0.212 HD
ENDBRANCH  59  70
BRANCH  61  72
HETATM   72  C6  SGN C   1      30.482  69.942   8.925  1.00 55.48     0.227 C 
BRANCH  72  73
HETATM   73  O6  SGN C   1      29.048  70.024   9.080  1.00 61.59    -0.254 OA
BRANCH  73  74
HETATM   74  S2  SGN C   1      28.221  70.056   7.719  1.00 65.98     0.251 S 
HETATM   75  O4S SGN C   1      27.688  68.640   7.482  1.00 65.09    -0.572 OA
HETATM   76  O5S SGN C   1      29.149  70.464   6.680  1.00 65.58    -0.572 OA
HETATM   77  O6S SGN C   1      27.066  71.089   7.905  1.00 65.84    -0.572 OA
ENDBRANCH  73  74
ENDBRANCH  72  73
ENDBRANCH  61  72
ENDBRANCH  55  56
ENDBRANCH   1  55
TORSDOF 27
ENDMDL
MODEL 83
REMARK VINA RESULT:      -4.9      4.563     12.264
REMARK  27 active torsions:
REMARK  status: ('A' for Active; 'I' for Inactive)
REMARK    1  A    between atoms: C1_1  and  O1_2 
REMARK    2  A    between atoms: S1_5  and  N2_7 
REMARK    3  A    between atoms: C2_6  and  N2_7 
REMARK    4  A    between atoms: S2_10  and  O6_22 
REMARK    5  A    between atoms: C3_11  and  O3_12 
REMARK    6  A    between atoms: C4_15  and  O4_16 
REMARK    7  A    between atoms: O4_16  and  C1_24 
REMARK    8  A    between atoms: C5_18  and  C6_21 
REMARK    9  A    between atoms: C6_21  and  O6_22 
REMARK   10  A    between atoms: C2_26  and  O2_27 
REMARK   11  A    between atoms: O2_27  and  S_40 
REMARK   12  A    between atoms: C3_29  and  O3_30 
REMARK   13  A    between atoms: C4_33  and  O4_34 
REMARK   14  A    between atoms: O4_34  and  C1_41 
REMARK   15  A    between atoms: C5_35  and  C6_37 
REMARK   16  A    between atoms: S1_43  and  N2_45 
REMARK   17  A    between atoms: C2_44  and  N2_45 
REMARK   18  A    between atoms: S2_48  and  O6_60 
REMARK   19  A    between atoms: C3_49  and  O3_50 
REMARK   20  A    between atoms: C4_53  and  O4_54 
REMARK   21  A    between atoms: O4_54  and  C1_62 
REMARK   22  A    between atoms: C5_56  and  C6_59 
REMARK   23  A    between atoms: C6_59  and  O6_60 
REMARK   24  A    between atoms: C2_64  and  O2_65 
REMARK   25  A    between atoms: O2_65  and  S_77 
REMARK   26  A    between atoms: C3_67  and  O3_68 
REMARK   27  A    between atoms: C5_72  and  C6_74 
ROOT
HETATM    1  C1  IDS C   2      35.170  66.872  19.601  1.00 40.81     0.294 C 
HETATM    2  C2  IDS C   2      35.670  68.305  19.795  1.00 40.20     0.231 C 
HETATM    3  C3  IDS C   2      34.990  69.260  18.817  1.00 39.01     0.185 C 
HETATM    4  C4  IDS C   2      35.276  68.852  17.357  1.00 37.65     0.195 C 
HETATM    5  C5  IDS C   2      35.690  67.376  17.300  1.00 35.99     0.257 C 
HETATM    6  O5  IDS C   2      34.872  66.605  18.213  1.00 39.00    -0.340 OA
ENDROOT
BRANCH   4   7
HETATM    7  O4  IDS C   2      34.094  69.068  16.547  1.00 35.98    -0.348 OA
BRANCH   7   8
HETATM    8  C1  SGN C   3      34.014  70.304  15.888  1.00 35.40     0.287 C 
HETATM    9  C2  SGN C   3      32.544  70.732  15.742  1.00 33.71     0.182 C 
HETATM   10  C3  SGN C   3      31.799  69.907  14.686  1.00 35.79     0.178 C 
HETATM   11  C4  SGN C   3      32.608  69.774  13.385  1.00 36.62     0.186 C 
HETATM   12  C5  SGN C   3      34.036  69.347  13.698  1.00 39.32     0.181 C 
HETATM   13  O5  SGN C   3      34.640  70.275  14.618  1.00 37.58    -0.349 OA
BRANCH   9  14
HETATM   14  N2  SGN C   3      31.868  70.581  17.012  1.00 29.28    -0.289 N 
ATOM     15  H2  SGN C   3      31.466  69.687  17.293  1.00  0.00     0.175 HD
BRANCH  14  16
HETATM   16  S1  SGN C   3      31.770  71.908  17.991  1.00 27.84     0.205 S 
HETATM   17  O1S SGN C   3      33.115  72.079  18.508  1.00 27.65    -0.578 OA
HETATM   18  O2S SGN C   3      30.786  71.542  19.051  1.00 27.72    -0.578 OA
HETATM   19  O3S SGN C   3      31.315  73.087  17.187  1.00 28.50    -0.578 OA
ENDBRANCH  14  16
ENDBRANCH   9  14
BRANCH  10  20
HETATM   20  O3  SGN C   3      30.535  70.510  14.417  1.00 34.89    -0.391 OA
ATOM     21  H3  SGN C   3      29.840  69.897  14.628  1.00  0.00     0.210 HD
ENDBRANCH  10  20
BRANCH  11  22
HETATM   22  O4  SGN C   3      32.002  68.770  12.552  1.00 37.13    -0.348 OA
BRANCH  22  23
HETATM   23  C1  UAP C   4      31.431  69.237  11.379  1.00 39.64     0.294 C 
HETATM   24  C2  UAP C   4      30.265  68.352  10.977  1.00 38.70     0.228 C 
HETATM   25  C3  UAP C   4      29.699  68.808   9.635  1.00 38.51     0.156 C 
HETATM   26  C4  UAP C   4      29.590  70.396   9.486  1.00 38.14     0.077 C 
HETATM   27  C5  UAP C   4      30.227  71.126  10.499  1.00 38.51     0.228 C 
HETATM   28  O5  UAP C   4      30.953  70.553  11.623  1.00 37.46    -0.343 OA
BRANCH  24  29
HETATM   29  O2  UAP C   4      30.717  66.969  10.811  1.00 40.54    -0.244 OA
BRANCH  29  30
HETATM   30  S   UAP C   4      29.724  65.740  11.070  1.00 40.49     0.252 S 
HETATM   31  O1S UAP C   4      30.525  64.662  11.669  1.00 40.89    -0.572 OA
HETATM   32  O2S UAP C   4      29.181  65.350   9.761  1.00 37.88    -0.572 OA
HETATM   33  O3S UAP C   4      28.675  66.218  11.984  1.00 37.47    -0.572 OA
ENDBRANCH  29  30
ENDBRANCH  24  29
BRANCH  25  34
HETATM   34  O3  UAP C   4      28.416  68.231   9.455  1.00 38.58    -0.393 OA
ATOM     35  H3  UAP C   4      28.381  67.817   8.600  1.00  0.00     0.210 HD
ENDBRANCH  25  34
BRANCH  27  36
HETATM   36  C6  UAP C   4      30.200  72.614  10.552  1.00 37.96     0.203 C 
HETATM   37  O6A UAP C   4      30.176  73.241   9.474  1.00 40.05    -0.646 OA
HETATM   38  O6B UAP C   4      30.204  73.167  11.673  1.00 36.71    -0.646 OA
ENDBRANCH  27  36
ENDBRANCH  22  23
ENDBRANCH  11  22
BRANCH  12  39
HETATM   39  C6  SGN C   3      34.935  69.270  12.496  1.00 42.65     0.227 C 
BRANCH  39  40
HETATM   40  O6  SGN C   3      35.619  70.540  12.436  1.00 51.09    -0.254 OA
BRANCH  40  41
HETATM   41  S2  SGN C   3      36.596  70.761  11.194  1.00 54.80     0.251 S 
HETATM   42  O4S SGN C   3      36.352  72.120  10.676  1.00 54.99    -0.572 OA
HETATM   43  O5S SGN C   3      36.249  69.714  10.187  1.00 53.99    -0.572 OA
HETATM   44  O6S SGN C   3      37.956  70.610  11.693  1.00 55.43    -0.572 OA
ENDBRANCH  40  41
ENDBRANCH  39  40
ENDBRANCH  12  39
ENDBRANCH   7   8
ENDBRANCH   4   7
BRANCH   3  45
HETATM   45  O3  IDS C   2      35.452  70.583  19.048  1.00 39.65    -0.390 OA
ATOM     46  H3  IDS C   2      35.010  70.946  19.806  1.00  0.00     0.210 HD
ENDBRANCH   3  45
BRANCH   5  47
HETATM   47  C6  IDS C   2      35.587  66.732  15.924  1.00 36.10     0.206 C 
HETATM   48  O6A IDS C   2      34.698  65.870  15.752  1.00 32.44    -0.646 OA
HETATM   49  O6B IDS C   2      36.384  67.107  15.030  1.00 33.44    -0.646 OA
ENDBRANCH   5  47
BRANCH   2  50
HETATM   50  O2  IDS C   2      35.371  68.751  21.149  1.00 43.59    -0.244 OA
BRANCH  50  51
HETATM   51  S   IDS C   2      33.858  68.773  21.657  1.00 44.11     0.252 S 
HETATM   52  O1S IDS C   2      33.520  67.370  22.077  1.00 44.48    -0.572 OA
HETATM   53  O2S IDS C   2      33.027  69.230  20.523  1.00 44.29    -0.572 OA
HETATM   54  O3S IDS C   2      33.801  69.699  22.774  1.00 44.74    -0.572 OA
ENDBRANCH  50  51
ENDBRANCH   2  50
BRANCH   1  55
HETATM   55  O4  SGN C   1      36.146  65.980  20.023  1.00 44.73    -0.348 OA
BRANCH  55  56
HETATM   56  C4  SGN C   1      35.730  64.877  20.859  1.00 48.25     0.186 C 
HETATM   57  C3  SGN C   1      35.476  63.637  19.992  1.00 48.43     0.178 C 
HETATM   58  C2  SGN C   1      35.187  62.428  20.880  1.00 48.58     0.181 C 
HETATM   59  C1  SGN C   1      36.282  62.224  21.926  1.00 50.40     0.283 C 
HETATM   60  O5  SGN C   1      36.458  63.421  22.694  1.00 50.82    -0.349 OA
HETATM   61  C5  SGN C   1      36.830  64.561  21.885  1.00 51.58     0.181 C 
BRANCH  57  62
HETATM   62  O3  SGN C   1      34.368  63.865  19.135  1.00 46.09    -0.391 OA
ATOM     63  H3  SGN C   1      33.571  63.582  19.570  1.00  0.00     0.210 HD
ENDBRANCH  57  62
BRANCH  58  64
HETATM   64  N2  SGN C   1      35.055  61.230  20.075  1.00 48.56    -0.289 N 
ATOM     65  H2  SGN C   1      35.833  60.828  19.554  1.00  0.00     0.175 HD
BRANCH  64  66
HETATM   66  S1  SGN C   1      33.538  60.569  20.071  1.00 47.67     0.205 S 
HETATM   67  O1S SGN C   1      33.409  59.809  18.809  1.00 47.59    -0.578 OA
HETATM   68  O2S SGN C   1      32.616  61.707  20.138  1.00 48.55    -0.578 OA
HETATM   69  O3S SGN C   1      33.453  59.699  21.265  1.00 47.08    -0.578 OA
ENDBRANCH  64  66
ENDBRANCH  58  64
BRANCH  59  70
HETATM   70  O1  SGN C   1      37.481  61.918  21.300  1.00 51.36    -0.369 OA
ATOM     71  H1  SGN C   1      38.074  62.658  21.357  1.00  0.00     0.212 HD
ENDBRANCH  59  70
BRANCH  61  72
HETATM   72  C6  SGN C   1      37.081  65.703  22.839  1.00 55.48     0.227 C 
BRANCH  72  73
HETATM   73  O6  SGN C   1      37.717  65.202  24.035  1.00 61.59    -0.254 OA
BRANCH  73  74
HETATM   74  S2  SGN C   1      39.020  65.998  24.491  1.00 65.98     0.251 S 
HETATM   75  O4S SGN C   1      38.578  67.418  24.854  1.00 65.09    -0.572 OA
HETATM   76  O5S SGN C   1      39.929  65.989  23.359  1.00 65.58    -0.572 OA
HETATM   77  O6S SGN C   1      39.615  65.241  25.720  1.00 65.84    -0.572 OA
ENDBRANCH  73  74
ENDBRANCH  72  73
ENDBRANCH  61  72
ENDBRANCH  55  56
ENDBRANCH   1  55
TORSDOF 27
ENDMDL
MODEL 84
REMARK VINA RESULT:      -4.9      5.776     10.658
REMARK  27 active torsions:
REMARK  status: ('A' for Active; 'I' for Inactive)
REMARK    1  A    between atoms: C1_1  and  O1_2 
REMARK    2  A    between atoms: S1_5  and  N2_7 
REMARK    3  A    between atoms: C2_6  and  N2_7 
REMARK    4  A    between atoms: S2_10  and  O6_22 
REMARK    5  A    between atoms: C3_11  and  O3_12 
REMARK    6  A    between atoms: C4_15  and  O4_16 
REMARK    7  A    between atoms: O4_16  and  C1_24 
REMARK    8  A    between atoms: C5_18  and  C6_21 
REMARK    9  A    between atoms: C6_21  and  O6_22 
REMARK   10  A    between atoms: C2_26  and  O2_27 
REMARK   11  A    between atoms: O2_27  and  S_40 
REMARK   12  A    between atoms: C3_29  and  O3_30 
REMARK   13  A    between atoms: C4_33  and  O4_34 
REMARK   14  A    between atoms: O4_34  and  C1_41 
REMARK   15  A    between atoms: C5_35  and  C6_37 
REMARK   16  A    between atoms: S1_43  and  N2_45 
REMARK   17  A    between atoms: C2_44  and  N2_45 
REMARK   18  A    between atoms: S2_48  and  O6_60 
REMARK   19  A    between atoms: C3_49  and  O3_50 
REMARK   20  A    between atoms: C4_53  and  O4_54 
REMARK   21  A    between atoms: O4_54  and  C1_62 
REMARK   22  A    between atoms: C5_56  and  C6_59 
REMARK   23  A    between atoms: C6_59  and  O6_60 
REMARK   24  A    between atoms: C2_64  and  O2_65 
REMARK   25  A    between atoms: O2_65  and  S_77 
REMARK   26  A    between atoms: C3_67  and  O3_68 
REMARK   27  A    between atoms: C5_72  and  C6_74 
ROOT
HETATM    1  C1  IDS C   2      31.453  70.925  10.541  1.00 40.81     0.294 C 
HETATM    2  C2  IDS C   2      31.004  72.385  10.446  1.00 40.20     0.231 C 
HETATM    3  C3  IDS C   2      31.814  73.270  11.388  1.00 39.01     0.185 C 
HETATM    4  C4  IDS C   2      31.646  72.819  12.853  1.00 37.65     0.195 C 
HETATM    5  C5  IDS C   2      31.171  71.361  12.897  1.00 35.99     0.257 C 
HETATM    6  O5  IDS C   2      31.865  70.592  11.886  1.00 39.00    -0.340 OA
ENDROOT
BRANCH   4   7
HETATM    7  O4  IDS C   2      32.906  72.952  13.556  1.00 35.98    -0.348 OA
BRANCH   7   8
HETATM    8  C1  SGN C   3      33.144  74.193  14.166  1.00 35.40     0.287 C 
HETATM    9  C2  SGN C   3      34.644  74.356  14.466  1.00 33.71     0.182 C 
HETATM   10  C3  SGN C   3      35.102  73.479  15.637  1.00 35.79     0.178 C 
HETATM   11  C4  SGN C   3      34.146  73.579  16.839  1.00 36.62     0.186 C 
HETATM   12  C5  SGN C   3      32.706  73.400  16.377  1.00 39.32     0.181 C 
HETATM   13  O5  SGN C   3      32.390  74.360  15.353  1.00 37.58    -0.349 OA
BRANCH   9  14
HETATM   14  N2  SGN C   3      35.413  74.004  13.293  1.00 29.28    -0.289 N 
ATOM     15  H2  SGN C   3      35.550  74.670  12.533  1.00  0.00     0.175 HD
BRANCH  14  16
HETATM   16  S1  SGN C   3      36.060  72.485  13.228  1.00 27.84     0.205 S 
HETATM   17  O1S SGN C   3      37.472  72.679  13.495  1.00 27.65    -0.578 OA
HETATM   18  O2S SGN C   3      35.796  72.006  11.839  1.00 27.72    -0.578 OA
HETATM   19  O3S SGN C   3      35.399  71.619  14.254  1.00 28.50    -0.578 OA
ENDBRANCH  14  16
ENDBRANCH   9  14
BRANCH  10  20
HETATM   20  O3  SGN C   3      36.420  73.859  16.028  1.00 34.89    -0.391 OA
ATOM     21  H3  SGN C   3      36.649  74.682  15.613  1.00  0.00     0.210 HD
ENDBRANCH  10  20
BRANCH  11  22
HETATM   22  O4  SGN C   3      34.459  72.537  17.780  1.00 37.13    -0.348 OA
BRANCH  22  23
HETATM   23  C1  UAP C   4      35.311  72.903  18.810  1.00 39.64     0.294 C 
HETATM   24  C2  UAP C   4      34.922  72.186  20.090  1.00 38.70     0.228 C 
HETATM   25  C3  UAP C   4      35.797  72.663  21.245  1.00 38.51     0.156 C 
HETATM   26  C4  UAP C   4      37.339  72.836  20.859  1.00 38.14     0.077 C 
HETATM   27  C5  UAP C   4      37.615  72.744  19.487  1.00 38.51     0.228 C 
HETATM   28  O5  UAP C   4      36.628  72.516  18.441  1.00 37.46    -0.343 OA
BRANCH  24  29
HETATM   29  O2  UAP C   4      33.534  72.496  20.439  1.00 40.54    -0.244 OA
BRANCH  29  30
HETATM   30  S   UAP C   4      32.472  71.330  20.711  1.00 40.49     0.252 S 
HETATM   31  O1S UAP C   4      32.981  70.543  21.844  1.00 40.89    -0.572 OA
HETATM   32  O2S UAP C   4      32.398  70.526  19.482  1.00 37.88    -0.572 OA
HETATM   33  O3S UAP C   4      31.189  71.979  21.024  1.00 37.47    -0.572 OA
ENDBRANCH  29  30
ENDBRANCH  24  29
BRANCH  25  34
HETATM   34  O3  UAP C   4      35.684  71.745  22.320  1.00 38.58    -0.393 OA
ATOM     35  H3  UAP C   4      35.257  72.176  23.051  1.00  0.00     0.210 HD
ENDBRANCH  25  34
BRANCH  27  36
HETATM   36  C6  UAP C   4      38.997  72.839  18.940  1.00 37.96     0.203 C 
HETATM   37  O6A UAP C   4      39.136  73.165  17.745  1.00 40.05    -0.646 OA
HETATM   38  O6B UAP C   4      39.954  72.586  19.703  1.00 36.71    -0.646 OA
ENDBRANCH  27  36
ENDBRANCH  22  23
ENDBRANCH  11  22
BRANCH  12  39
HETATM   39  C6  SGN C   3      31.683  73.564  17.467  1.00 42.65     0.227 C 
BRANCH  39  40
HETATM   40  O6  SGN C   3      32.150  74.663  18.278  1.00 51.09    -0.254 OA
BRANCH  40  41
HETATM   41  S2  SGN C   3      31.193  75.938  18.362  1.00 54.80     0.251 S 
HETATM   42  O4S SGN C   3      31.812  77.008  17.559  1.00 54.99    -0.572 OA
HETATM   43  O5S SGN C   3      31.103  76.309  19.806  1.00 53.99    -0.572 OA
HETATM   44  O6S SGN C   3      29.903  75.534  17.820  1.00 55.43    -0.572 OA
ENDBRANCH  40  41
ENDBRANCH  39  40
ENDBRANCH  12  39
ENDBRANCH   7   8
ENDBRANCH   4   7
BRANCH   3  45
HETATM   45  O3  IDS C   2      31.394  74.621  11.248  1.00 39.65    -0.390 OA
ATOM     46  H3  IDS C   2      31.335  74.840  10.326  1.00  0.00     0.210 HD
ENDBRANCH   3  45
BRANCH   5  47
HETATM   47  C6  IDS C   2      31.370  70.660  14.234  1.00 36.10     0.206 C 
HETATM   48  O6A IDS C   2      30.614  70.983  15.177  1.00 32.44    -0.646 OA
HETATM   49  O6B IDS C   2      32.267  69.788  14.322  1.00 33.44    -0.646 OA
ENDBRANCH   5  47
BRANCH   2  50
HETATM   50  O2  IDS C   2      31.197  72.870   9.085  1.00 43.59    -0.244 OA
BRANCH  50  51
HETATM   51  S   IDS C   2      29.942  73.392   8.249  1.00 44.11     0.252 S 
HETATM   52  O1S IDS C   2      29.880  74.881   8.443  1.00 44.48    -0.572 OA
HETATM   53  O2S IDS C   2      28.747  72.710   8.789  1.00 44.29    -0.572 OA
HETATM   54  O3S IDS C   2      30.183  73.038   6.862  1.00 44.74    -0.572 OA
ENDBRANCH  50  51
ENDBRANCH   2  50
BRANCH   1  55
HETATM   55  O4  SGN C   1      30.403  70.093  10.182  1.00 44.73    -0.348 OA
BRANCH  55  56
HETATM   56  C4  SGN C   1      30.727  68.755   9.744  1.00 48.25     0.186 C 
HETATM   57  C3  SGN C   1      30.331  67.744  10.826  1.00 48.43     0.178 C 
HETATM   58  C2  SGN C   1      30.526  66.319  10.310  1.00 48.58     0.181 C 
HETATM   59  C1  SGN C   1      29.806  66.100   8.981  1.00 50.40     0.283 C 
HETATM   60  O5  SGN C   1      30.229  67.078   8.023  1.00 50.82    -0.349 OA
HETATM   61  C5  SGN C   1      29.963  68.435   8.447  1.00 51.58     0.181 C 
BRANCH  57  62
HETATM   62  O3  SGN C   1      31.129  67.936  11.983  1.00 46.09    -0.391 OA
ATOM     63  H3  SGN C   1      31.938  67.447  11.891  1.00  0.00     0.210 HD
ENDBRANCH  57  62
BRANCH  58  64
HETATM   64  N2  SGN C   1      30.051  65.358  11.285  1.00 48.56    -0.289 N 
ATOM     65  H2  SGN C   1      29.090  65.348  11.625  1.00  0.00     0.175 HD
BRANCH  64  66
HETATM   66  S1  SGN C   1      31.194  64.280  11.801  1.00 47.67     0.205 S 
HETATM   67  O1S SGN C   1      30.652  63.635  13.017  1.00 47.59    -0.578 OA
HETATM   68  O2S SGN C   1      32.390  65.082  12.077  1.00 48.55    -0.578 OA
HETATM   69  O3S SGN C   1      31.399  63.318  10.696  1.00 47.08    -0.578 OA
ENDBRANCH  64  66
ENDBRANCH  58  64
BRANCH  59  70
HETATM   70  O1  SGN C   1      28.436  66.219   9.161  1.00 51.36    -0.369 OA
ATOM     71  H1  SGN C   1      28.223  66.139  10.083  1.00  0.00     0.212 HD
ENDBRANCH  59  70
BRANCH  61  72
HETATM   72  C6  SGN C   1      30.363  69.331   7.301  1.00 55.48     0.227 C 
BRANCH  72  73
HETATM   73  O6  SGN C   1      29.200  70.032   6.809  1.00 61.59    -0.254 OA
BRANCH  73  74
HETATM   74  S2  SGN C   1      28.925  69.871   5.247  1.00 65.98     0.251 S 
HETATM   75  O4S SGN C   1      28.056  71.056   4.818  1.00 65.09    -0.572 OA
HETATM   76  O5S SGN C   1      28.235  68.606   5.076  1.00 65.58    -0.572 OA
HETATM   77  O6S SGN C   1      30.313  69.878   4.532  1.00 65.84    -0.572 OA
ENDBRANCH  73  74
ENDBRANCH  72  73
ENDBRANCH  61  72
ENDBRANCH  55  56
ENDBRANCH   1  55
TORSDOF 27
ENDMDL
MODEL 85
REMARK VINA RESULT:      -4.8      2.850     11.989
REMARK  27 active torsions:
REMARK  status: ('A' for Active; 'I' for Inactive)
REMARK    1  A    between atoms: C1_1  and  O1_2 
REMARK    2  A    between atoms: S1_5  and  N2_7 
REMARK    3  A    between atoms: C2_6  and  N2_7 
REMARK    4  A    between atoms: S2_10  and  O6_22 
REMARK    5  A    between atoms: C3_11  and  O3_12 
REMARK    6  A    between atoms: C4_15  and  O4_16 
REMARK    7  A    between atoms: O4_16  and  C1_24 
REMARK    8  A    between atoms: C5_18  and  C6_21 
REMARK    9  A    between atoms: C6_21  and  O6_22 
REMARK   10  A    between atoms: C2_26  and  O2_27 
REMARK   11  A    between atoms: O2_27  and  S_40 
REMARK   12  A    between atoms: C3_29  and  O3_30 
REMARK   13  A    between atoms: C4_33  and  O4_34 
REMARK   14  A    between atoms: O4_34  and  C1_41 
REMARK   15  A    between atoms: C5_35  and  C6_37 
REMARK   16  A    between atoms: S1_43  and  N2_45 
REMARK   17  A    between atoms: C2_44  and  N2_45 
REMARK   18  A    between atoms: S2_48  and  O6_60 
REMARK   19  A    between atoms: C3_49  and  O3_50 
REMARK   20  A    between atoms: C4_53  and  O4_54 
REMARK   21  A    between atoms: O4_54  and  C1_62 
REMARK   22  A    between atoms: C5_56  and  C6_59 
REMARK   23  A    between atoms: C6_59  and  O6_60 
REMARK   24  A    between atoms: C2_64  and  O2_65 
REMARK   25  A    between atoms: O2_65  and  S_77 
REMARK   26  A    between atoms: C3_67  and  O3_68 
REMARK   27  A    between atoms: C5_72  and  C6_74 
ROOT
HETATM    1  C1  IDS C   2      34.643  66.956  19.068  1.00 40.81     0.294 C 
HETATM    2  C2  IDS C   2      34.208  67.309  17.643  1.00 40.20     0.231 C 
HETATM    3  C3  IDS C   2      34.495  68.775  17.330  1.00 39.01     0.185 C 
HETATM    4  C4  IDS C   2      33.740  69.706  18.299  1.00 37.65     0.195 C 
HETATM    5  C5  IDS C   2      33.362  68.937  19.572  1.00 35.99     0.257 C 
HETATM    6  O5  IDS C   2      34.457  68.075  19.963  1.00 39.00    -0.340 OA
ENDROOT
BRANCH   4   7
HETATM    7  O4  IDS C   2      34.572  70.844  18.635  1.00 35.98    -0.348 OA
BRANCH   7   8
HETATM    8  C1  SGN C   3      34.950  71.669  17.566  1.00 35.40     0.287 C 
HETATM    9  C2  SGN C   3      35.333  73.066  18.085  1.00 33.71     0.182 C 
HETATM   10  C3  SGN C   3      34.111  73.879  18.527  1.00 35.79     0.178 C 
HETATM   11  C4  SGN C   3      32.975  73.819  17.492  1.00 36.62     0.186 C 
HETATM   12  C5  SGN C   3      32.719  72.374  17.080  1.00 39.32     0.181 C 
HETATM   13  O5  SGN C   3      33.932  71.778  16.587  1.00 37.58    -0.349 OA
BRANCH   9  14
HETATM   14  N2  SGN C   3      36.235  72.934  19.207  1.00 29.28    -0.289 N 
ATOM     15  H2  SGN C   3      35.971  72.402  20.036  1.00  0.00     0.175 HD
BRANCH  14  16
HETATM   16  S1  SGN C   3      37.708  73.675  19.099  1.00 27.84     0.205 S 
HETATM   17  O1S SGN C   3      38.349  73.045  17.960  1.00 27.65    -0.578 OA
HETATM   18  O2S SGN C   3      38.395  73.371  20.388  1.00 27.72    -0.578 OA
HETATM   19  O3S SGN C   3      37.512  75.145  18.901  1.00 28.50    -0.578 OA
ENDBRANCH  14  16
ENDBRANCH   9  14
BRANCH  10  20
HETATM   20  O3  SGN C   3      34.496  75.233  18.752  1.00 34.89    -0.391 OA
ATOM     21  H3  SGN C   3      35.278  75.428  18.248  1.00  0.00     0.210 HD
ENDBRANCH  10  20
BRANCH  11  22
HETATM   22  O4  SGN C   3      31.772  74.347  18.078  1.00 37.13    -0.348 OA
BRANCH  22  23
HETATM   23  C1  UAP C   4      31.040  75.198  17.265  1.00 39.64     0.294 C 
HETATM   24  C2  UAP C   4      30.245  76.175  18.113  1.00 38.70     0.228 C 
HETATM   25  C3  UAP C   4      29.365  77.046  17.221  1.00 38.51     0.156 C 
HETATM   26  C4  UAP C   4      30.090  77.547  15.887  1.00 38.14     0.077 C 
HETATM   27  C5  UAP C   4      31.327  76.939  15.628  1.00 38.51     0.228 C 
HETATM   28  O5  UAP C   4      31.958  75.923  16.458  1.00 37.46    -0.343 OA
BRANCH  24  29
HETATM   29  O2  UAP C   4      29.358  75.447  19.022  1.00 40.54    -0.244 OA
BRANCH  29  30
HETATM   30  S   UAP C   4      29.035  76.009  20.485  1.00 40.49     0.252 S 
HETATM   31  O1S UAP C   4      28.641  74.856  21.309  1.00 40.89    -0.572 OA
HETATM   32  O2S UAP C   4      27.934  76.972  20.337  1.00 37.88    -0.572 OA
HETATM   33  O3S UAP C   4      30.264  76.647  20.984  1.00 37.47    -0.572 OA
ENDBRANCH  29  30
ENDBRANCH  24  29
BRANCH  25  34
HETATM   34  O3  UAP C   4      28.924  78.171  17.965  1.00 38.58    -0.393 OA
ATOM     35  H3  UAP C   4      28.600  78.831  17.364  1.00  0.00     0.210 HD
ENDBRANCH  25  34
BRANCH  27  36
HETATM   36  C6  UAP C   4      32.168  77.304  14.454  1.00 37.96     0.203 C 
HETATM   37  O6A UAP C   4      31.633  77.317  13.328  1.00 40.05    -0.646 OA
HETATM   38  O6B UAP C   4      33.371  77.578  14.652  1.00 36.71    -0.646 OA
ENDBRANCH  27  36
ENDBRANCH  22  23
ENDBRANCH  11  22
BRANCH  12  39
HETATM   39  C6  SGN C   3      31.680  72.214  16.005  1.00 42.65     0.227 C 
BRANCH  39  40
HETATM   40  O6  SGN C   3      32.414  72.028  14.776  1.00 51.09    -0.254 OA
BRANCH  40  41
HETATM   41  S2  SGN C   3      31.828  70.948  13.758  1.00 54.80     0.251 S 
HETATM   42  O4S SGN C   3      31.707  71.602  12.442  1.00 54.99    -0.572 OA
HETATM   43  O5S SGN C   3      30.499  70.532  14.295  1.00 53.99    -0.572 OA
HETATM   44  O6S SGN C   3      32.775  69.841  13.725  1.00 55.43    -0.572 OA
ENDBRANCH  40  41
ENDBRANCH  39  40
ENDBRANCH  12  39
ENDBRANCH   7   8
ENDBRANCH   4   7
BRANCH   3  45
HETATM   45  O3  IDS C   2      34.111  69.057  15.991  1.00 39.65    -0.390 OA
ATOM     46  H3  IDS C   2      34.776  68.734  15.395  1.00  0.00     0.210 HD
ENDBRANCH   3  45
BRANCH   5  47
HETATM   47  C6  IDS C   2      33.006  69.810  20.768  1.00 36.10     0.206 C 
HETATM   48  O6A IDS C   2      33.509  69.512  21.873  1.00 32.44    -0.646 OA
HETATM   49  O6B IDS C   2      32.241  70.787  20.585  1.00 33.44    -0.646 OA
ENDBRANCH   5  47
BRANCH   2  50
HETATM   50  O2  IDS C   2      34.939  66.486  16.688  1.00 43.59    -0.244 OA
BRANCH  50  51
HETATM   51  S   IDS C   2      36.523  66.639  16.566  1.00 44.11     0.252 S 
HETATM   52  O1S IDS C   2      37.126  65.801  17.659  1.00 44.48    -0.572 OA
HETATM   53  O2S IDS C   2      36.834  68.075  16.729  1.00 44.29    -0.572 OA
HETATM   54  O3S IDS C   2      36.893  66.155  15.248  1.00 44.74    -0.572 OA
ENDBRANCH  50  51
ENDBRANCH   2  50
BRANCH   1  55
HETATM   55  O4  SGN C   1      33.887  65.888  19.531  1.00 44.73    -0.348 OA
BRANCH  55  56
HETATM   56  C4  SGN C   1      34.581  64.826  20.222  1.00 48.25     0.186 C 
HETATM   57  C3  SGN C   1      34.114  64.766  21.682  1.00 48.43     0.178 C 
HETATM   58  C2  SGN C   1      34.725  63.550  22.378  1.00 48.58     0.181 C 
HETATM   59  C1  SGN C   1      34.456  62.264  21.600  1.00 50.40     0.283 C 
HETATM   60  O5  SGN C   1      34.920  62.397  20.251  1.00 50.82    -0.349 OA
HETATM   61  C5  SGN C   1      34.282  63.482  19.538  1.00 51.58     0.181 C 
BRANCH  57  62
HETATM   62  O3  SGN C   1      34.509  65.945  22.365  1.00 46.09    -0.391 OA
ATOM     63  H3  SGN C   1      34.140  66.702  21.924  1.00  0.00     0.210 HD
ENDBRANCH  57  62
BRANCH  58  64
HETATM   64  N2  SGN C   1      34.204  63.423  23.723  1.00 48.56    -0.289 N 
ATOM     65  H2  SGN C   1      33.211  63.292  23.920  1.00  0.00     0.175 HD
BRANCH  64  66
HETATM   66  S1  SGN C   1      35.348  63.507  24.915  1.00 47.67     0.205 S 
HETATM   67  O1S SGN C   1      34.670  63.154  26.181  1.00 47.59    -0.578 OA
HETATM   68  O2S SGN C   1      35.824  64.894  24.902  1.00 48.55    -0.578 OA
HETATM   69  O3S SGN C   1      36.408  62.540  24.553  1.00 47.08    -0.578 OA
ENDBRANCH  64  66
ENDBRANCH  58  64
BRANCH  59  70
HETATM   70  O1  SGN C   1      33.094  62.002  21.576  1.00 51.36    -0.369 OA
ATOM     71  H1  SGN C   1      32.673  62.413  22.322  1.00  0.00     0.212 HD
ENDBRANCH  59  70
BRANCH  61  72
HETATM   72  C6  SGN C   1      34.792  63.425  18.119  1.00 55.48     0.227 C 
BRANCH  72  73
HETATM   73  O6  SGN C   1      35.074  62.055  17.762  1.00 61.59    -0.254 OA
BRANCH  73  74
HETATM   74  S2  SGN C   1      33.913  61.312  16.961  1.00 65.98     0.251 S 
HETATM   75  O4S SGN C   1      33.696  62.087  15.660  1.00 65.09    -0.572 OA
HETATM   76  O5S SGN C   1      32.738  61.343  17.812  1.00 65.58    -0.572 OA
HETATM   77  O6S SGN C   1      34.399  59.853  16.695  1.00 65.84    -0.572 OA
ENDBRANCH  73  74
ENDBRANCH  72  73
ENDBRANCH  61  72
ENDBRANCH  55  56
ENDBRANCH   1  55
TORSDOF 27
ENDMDL
MODEL 86
REMARK VINA RESULT:      -4.8     16.156     21.769
REMARK  27 active torsions:
REMARK  status: ('A' for Active; 'I' for Inactive)
REMARK    1  A    between atoms: C1_1  and  O1_2 
REMARK    2  A    between atoms: S1_5  and  N2_7 
REMARK    3  A    between atoms: C2_6  and  N2_7 
REMARK    4  A    between atoms: S2_10  and  O6_22 
REMARK    5  A    between atoms: C3_11  and  O3_12 
REMARK    6  A    between atoms: C4_15  and  O4_16 
REMARK    7  A    between atoms: O4_16  and  C1_24 
REMARK    8  A    between atoms: C5_18  and  C6_21 
REMARK    9  A    between atoms: C6_21  and  O6_22 
REMARK   10  A    between atoms: C2_26  and  O2_27 
REMARK   11  A    between atoms: O2_27  and  S_40 
REMARK   12  A    between atoms: C3_29  and  O3_30 
REMARK   13  A    between atoms: C4_33  and  O4_34 
REMARK   14  A    between atoms: O4_34  and  C1_41 
REMARK   15  A    between atoms: C5_35  and  C6_37 
REMARK   16  A    between atoms: S1_43  and  N2_45 
REMARK   17  A    between atoms: C2_44  and  N2_45 
REMARK   18  A    between atoms: S2_48  and  O6_60 
REMARK   19  A    between atoms: C3_49  and  O3_50 
REMARK   20  A    between atoms: C4_53  and  O4_54 
REMARK   21  A    between atoms: O4_54  and  C1_62 
REMARK   22  A    between atoms: C5_56  and  C6_59 
REMARK   23  A    between atoms: C6_59  and  O6_60 
REMARK   24  A    between atoms: C2_64  and  O2_65 
REMARK   25  A    between atoms: O2_65  and  S_77 
REMARK   26  A    between atoms: C3_67  and  O3_68 
REMARK   27  A    between atoms: C5_72  and  C6_74 
ROOT
HETATM    1  C1  IDS C   2      21.560  83.835  11.112  1.00 40.81     0.294 C 
HETATM    2  C2  IDS C   2      20.766  84.697  12.096  1.00 40.20     0.231 C 
HETATM    3  C3  IDS C   2      21.277  86.135  12.102  1.00 39.01     0.185 C 
HETATM    4  C4  IDS C   2      22.762  86.192  12.515  1.00 37.65     0.195 C 
HETATM    5  C5  IDS C   2      23.418  84.823  12.292  1.00 35.99     0.257 C 
HETATM    6  O5  IDS C   2      22.942  84.252  11.050  1.00 39.00    -0.340 OA
ENDROOT
BRANCH   4   7
HETATM    7  O4  IDS C   2      23.449  87.204  11.738  1.00 35.98    -0.348 OA
BRANCH   7   8
HETATM    8  C1  SGN C   3      23.309  88.526  12.185  1.00 35.40     0.287 C 
HETATM    9  C2  SGN C   3      23.201  89.482  10.984  1.00 33.71     0.182 C 
HETATM   10  C3  SGN C   3      24.541  89.668  10.264  1.00 35.79     0.178 C 
HETATM   11  C4  SGN C   3      25.692  89.931  11.250  1.00 36.62     0.186 C 
HETATM   12  C5  SGN C   3      25.661  88.906  12.377  1.00 39.32     0.181 C 
HETATM   13  O5  SGN C   3      24.377  88.923  13.026  1.00 37.58    -0.349 OA
BRANCH   9  14
HETATM   14  N2  SGN C   3      22.233  88.966  10.041  1.00 29.28    -0.289 N 
ATOM     15  H2  SGN C   3      22.461  88.184   9.426  1.00  0.00     0.175 HD
BRANCH  14  16
HETATM   16  S1  SGN C   3      20.748  89.687   9.993  1.00 27.84     0.205 S 
HETATM   17  O1S SGN C   3      20.274  89.457   8.641  1.00 27.65    -0.578 OA
HETATM   18  O2S SGN C   3      21.004  91.130  10.278  1.00 27.72    -0.578 OA
HETATM   19  O3S SGN C   3      19.859  89.063  11.023  1.00 28.50    -0.578 OA
ENDBRANCH  14  16
ENDBRANCH   9  14
BRANCH  10  20
HETATM   20  O3  SGN C   3      24.437  90.744   9.335  1.00 34.89    -0.391 OA
ATOM     21  H3  SGN C   3      24.060  91.501   9.768  1.00  0.00     0.210 HD
ENDBRANCH  10  20
BRANCH  11  22
HETATM   22  O4  SGN C   3      26.947  89.810  10.557  1.00 37.13    -0.348 OA
BRANCH  22  23
HETATM   23  C1  UAP C   4      27.737  90.949  10.557  1.00 39.64     0.294 C 
HETATM   24  C2  UAP C   4      27.876  91.489   9.145  1.00 38.70     0.228 C 
HETATM   25  C3  UAP C   4      28.824  92.685   9.132  1.00 38.51     0.156 C 
HETATM   26  C4  UAP C   4      28.615  93.690  10.358  1.00 38.14     0.077 C 
HETATM   27  C5  UAP C   4      27.762  93.216  11.366  1.00 38.51     0.228 C 
HETATM   28  O5  UAP C   4      27.091  91.924  11.366  1.00 37.46    -0.343 OA
BRANCH  24  29
HETATM   29  O2  UAP C   4      28.452  90.467   8.270  1.00 40.54    -0.244 OA
BRANCH  29  30
HETATM   30  S   UAP C   4      27.747  90.069   6.889  1.00 40.49     0.252 S 
HETATM   31  O1S UAP C   4      28.211  91.030   5.878  1.00 40.89    -0.572 OA
HETATM   32  O2S UAP C   4      26.297  90.171   7.109  1.00 37.88    -0.572 OA
HETATM   33  O3S UAP C   4      28.162  88.693   6.572  1.00 37.47    -0.572 OA
ENDBRANCH  29  30
ENDBRANCH  24  29
BRANCH  25  34
HETATM   34  O3  UAP C   4      28.659  93.392   7.913  1.00 38.58    -0.393 OA
ATOM     35  H3  UAP C   4      28.656  94.324   8.095  1.00  0.00     0.210 HD
ENDBRANCH  25  34
BRANCH  27  36
HETATM   36  C6  UAP C   4      27.415  94.027  12.566  1.00 37.96     0.203 C 
HETATM   37  O6A UAP C   4      27.291  93.438  13.658  1.00 40.05    -0.646 OA
HETATM   38  O6B UAP C   4      27.262  95.258  12.424  1.00 36.71    -0.646 OA
ENDBRANCH  27  36
ENDBRANCH  22  23
ENDBRANCH  11  22
BRANCH  12  39
HETATM   39  C6  SGN C   3      26.698  89.128  13.442  1.00 42.65     0.227 C 
BRANCH  39  40
HETATM   40  O6  SGN C   3      27.319  87.842  13.657  1.00 51.09    -0.254 OA
BRANCH  40  41
HETATM   41  S2  SGN C   3      28.912  87.832  13.751  1.00 54.80     0.251 S 
HETATM   42  O4S SGN C   3      29.396  89.102  13.180  1.00 54.99    -0.572 OA
HETATM   43  O5S SGN C   3      29.379  86.655  12.959  1.00 53.99    -0.572 OA
HETATM   44  O6S SGN C   3      29.251  87.711  15.162  1.00 55.43    -0.572 OA
ENDBRANCH  40  41
ENDBRANCH  39  40
ENDBRANCH  12  39
ENDBRANCH   7   8
ENDBRANCH   4   7
BRANCH   3  45
HETATM   45  O3  IDS C   2      20.496  86.912  13.000  1.00 39.65    -0.390 OA
ATOM     46  H3  IDS C   2      21.069  87.450  13.533  1.00  0.00     0.210 HD
ENDBRANCH   3  45
BRANCH   5  47
HETATM   47  C6  IDS C   2      24.939  84.840  12.247  1.00 36.10     0.206 C 
HETATM   48  O6A IDS C   2      25.547  85.198  13.280  1.00 32.44    -0.646 OA
HETATM   49  O6B IDS C   2      25.507  84.481  11.188  1.00 33.44    -0.646 OA
ENDBRANCH   5  47
BRANCH   2  50
HETATM   50  O2  IDS C   2      19.361  84.714  11.711  1.00 43.59    -0.244 OA
BRANCH  50  51
HETATM   51  S   IDS C   2      18.233  84.690  12.840  1.00 44.11     0.252 S 
HETATM   52  O1S IDS C   2      18.911  84.301  14.123  1.00 44.48    -0.572 OA
HETATM   53  O2S IDS C   2      17.221  83.697  12.421  1.00 44.29    -0.572 OA
HETATM   54  O3S IDS C   2      17.676  86.030  12.907  1.00 44.74    -0.572 OA
ENDBRANCH  50  51
ENDBRANCH   2  50
BRANCH   1  55
HETATM   55  O4  SGN C   1      21.516  82.509  11.518  1.00 44.73    -0.348 OA
BRANCH  55  56
HETATM   56  C4  SGN C   1      21.633  81.492  10.499  1.00 48.25     0.186 C 
HETATM   57  C3  SGN C   1      23.043  80.889  10.527  1.00 48.43     0.178 C 
HETATM   58  C2  SGN C   1      23.128  79.709   9.560  1.00 48.58     0.181 C 
HETATM   59  C1  SGN C   1      22.025  78.686   9.824  1.00 50.40     0.283 C 
HETATM   60  O5  SGN C   1      20.742  79.322   9.780  1.00 50.82    -0.349 OA
HETATM   61  C5  SGN C   1      20.602  80.380  10.756  1.00 51.58     0.181 C 
BRANCH  57  62
HETATM   62  O3  SGN C   1      23.996  81.871  10.153  1.00 46.09    -0.391 OA
ATOM     63  H3  SGN C   1      23.846  82.127   9.250  1.00  0.00     0.210 HD
ENDBRANCH  57  62
BRANCH  58  64
HETATM   64  N2  SGN C   1      24.422  79.065   9.661  1.00 48.56    -0.289 N 
ATOM     65  H2  SGN C   1      24.722  78.558  10.494  1.00  0.00     0.175 HD
BRANCH  64  66
HETATM   66  S1  SGN C   1      25.373  79.219   8.316  1.00 47.67     0.205 S 
HETATM   67  O1S SGN C   1      26.777  79.198   8.783  1.00 47.59    -0.578 OA
HETATM   68  O2S SGN C   1      25.001  80.506   7.720  1.00 48.55    -0.578 OA
HETATM   69  O3S SGN C   1      25.053  78.073   7.438  1.00 47.08    -0.578 OA
ENDBRANCH  64  66
ENDBRANCH  58  64
BRANCH  59  70
HETATM   70  O1  SGN C   1      22.196  78.120  11.079  1.00 51.36    -0.369 OA
ATOM     71  H1  SGN C   1      23.013  77.637  11.107  1.00  0.00     0.212 HD
ENDBRANCH  59  70
BRANCH  61  72
HETATM   72  C6  SGN C   1      19.179  80.873  10.657  1.00 55.48     0.227 C 
BRANCH  72  73
HETATM   73  O6  SGN C   1      18.556  80.314   9.480  1.00 61.59    -0.254 OA
BRANCH  73  74
HETATM   74  S2  SGN C   1      18.165  81.373   8.355  1.00 65.98     0.251 S 
HETATM   75  O4S SGN C   1      19.445  81.709   7.586  1.00 65.09    -0.572 OA
HETATM   76  O5S SGN C   1      17.630  82.532   9.046  1.00 65.58    -0.572 OA
HETATM   77  O6S SGN C   1      17.096  80.697   7.439  1.00 65.84    -0.572 OA
ENDBRANCH  73  74
ENDBRANCH  72  73
ENDBRANCH  61  72
ENDBRANCH  55  56
ENDBRANCH   1  55
TORSDOF 27
ENDMDL
MODEL 87
REMARK VINA RESULT:      -4.8      7.982     14.213
REMARK  27 active torsions:
REMARK  status: ('A' for Active; 'I' for Inactive)
REMARK    1  A    between atoms: C1_1  and  O1_2 
REMARK    2  A    between atoms: S1_5  and  N2_7 
REMARK    3  A    between atoms: C2_6  and  N2_7 
REMARK    4  A    between atoms: S2_10  and  O6_22 
REMARK    5  A    between atoms: C3_11  and  O3_12 
REMARK    6  A    between atoms: C4_15  and  O4_16 
REMARK    7  A    between atoms: O4_16  and  C1_24 
REMARK    8  A    between atoms: C5_18  and  C6_21 
REMARK    9  A    between atoms: C6_21  and  O6_22 
REMARK   10  A    between atoms: C2_26  and  O2_27 
REMARK   11  A    between atoms: O2_27  and  S_40 
REMARK   12  A    between atoms: C3_29  and  O3_30 
REMARK   13  A    between atoms: C4_33  and  O4_34 
REMARK   14  A    between atoms: O4_34  and  C1_41 
REMARK   15  A    between atoms: C5_35  and  C6_37 
REMARK   16  A    between atoms: S1_43  and  N2_45 
REMARK   17  A    between atoms: C2_44  and  N2_45 
REMARK   18  A    between atoms: S2_48  and  O6_60 
REMARK   19  A    between atoms: C3_49  and  O3_50 
REMARK   20  A    between atoms: C4_53  and  O4_54 
REMARK   21  A    between atoms: O4_54  and  C1_62 
REMARK   22  A    between atoms: C5_56  and  C6_59 
REMARK   23  A    between atoms: C6_59  and  O6_60 
REMARK   24  A    between atoms: C2_64  and  O2_65 
REMARK   25  A    between atoms: O2_65  and  S_77 
REMARK   26  A    between atoms: C3_67  and  O3_68 
REMARK   27  A    between atoms: C5_72  and  C6_74 
ROOT
HETATM    1  C1  IDS C   2      30.543  72.291  10.202  1.00 40.81     0.294 C 
HETATM    2  C2  IDS C   2      31.672  72.183  11.229  1.00 40.20     0.231 C 
HETATM    3  C3  IDS C   2      31.737  73.431  12.106  1.00 39.01     0.185 C 
HETATM    4  C4  IDS C   2      31.991  74.692  11.255  1.00 37.65     0.195 C 
HETATM    5  C5  IDS C   2      31.591  74.426   9.798  1.00 35.99     0.257 C 
HETATM    6  O5  IDS C   2      30.366  73.655   9.761  1.00 39.00    -0.340 OA
ENDROOT
BRANCH   4   7
HETATM    7  O4  IDS C   2      31.227  75.804  11.784  1.00 35.98    -0.348 OA
BRANCH   7   8
HETATM    8  C1  SGN C   3      31.927  76.698  12.606  1.00 35.40     0.287 C 
HETATM    9  C2  SGN C   3      31.032  77.159  13.770  1.00 33.71     0.182 C 
HETATM   10  C3  SGN C   3      29.942  78.136  13.315  1.00 35.79     0.178 C 
HETATM   11  C4  SGN C   3      30.504  79.239  12.401  1.00 36.62     0.186 C 
HETATM   12  C5  SGN C   3      31.366  78.623  11.306  1.00 39.32     0.181 C 
HETATM   13  O5  SGN C   3      32.408  77.821  11.890  1.00 37.58    -0.349 OA
BRANCH   9  14
HETATM   14  N2  SGN C   3      30.401  76.009  14.379  1.00 29.28    -0.289 N 
ATOM     15  H2  SGN C   3      29.597  75.556  13.945  1.00  0.00     0.175 HD
BRANCH  14  16
HETATM   16  S1  SGN C   3      31.028  75.456  15.804  1.00 27.84     0.205 S 
HETATM   17  O1S SGN C   3      31.252  74.040  15.578  1.00 27.65    -0.578 OA
HETATM   18  O2S SGN C   3      29.971  75.717  16.825  1.00 27.72    -0.578 OA
HETATM   19  O3S SGN C   3      32.296  76.192  16.109  1.00 28.50    -0.578 OA
ENDBRANCH  14  16
ENDBRANCH   9  14
BRANCH  10  20
HETATM   20  O3  SGN C   3      29.318  78.718  14.457  1.00 34.89    -0.391 OA
ATOM     21  H3  SGN C   3      29.985  79.013  15.066  1.00  0.00     0.210 HD
ENDBRANCH  10  20
BRANCH  11  22
HETATM   22  O4  SGN C   3      29.412  79.942  11.782  1.00 37.13    -0.348 OA
BRANCH  22  23
HETATM   23  C1  UAP C   4      28.434  80.400  12.650  1.00 39.64     0.294 C 
HETATM   24  C2  UAP C   4      28.409  81.918  12.656  1.00 38.70     0.228 C 
HETATM   25  C3  UAP C   4      27.399  82.422  13.684  1.00 38.51     0.156 C 
HETATM   26  C4  UAP C   4      26.029  81.598  13.702  1.00 38.14     0.077 C 
HETATM   27  C5  UAP C   4      26.045  80.417  12.946  1.00 38.51     0.228 C 
HETATM   28  O5  UAP C   4      27.181  79.917  12.184  1.00 37.46    -0.343 OA
BRANCH  24  29
HETATM   29  O2  UAP C   4      29.721  82.441  13.043  1.00 40.54    -0.244 OA
BRANCH  29  30
HETATM   30  S   UAP C   4      30.211  82.394  14.566  1.00 40.49     0.252 S 
HETATM   31  O1S UAP C   4      31.624  81.987  14.549  1.00 40.89    -0.572 OA
HETATM   32  O2S UAP C   4      29.369  81.403  15.253  1.00 37.88    -0.572 OA
HETATM   33  O3S UAP C   4      30.035  83.746  15.119  1.00 37.47    -0.572 OA
ENDBRANCH  29  30
ENDBRANCH  24  29
BRANCH  25  34
HETATM   34  O3  UAP C   4      27.120  83.789  13.425  1.00 38.58    -0.393 OA
ATOM     35  H3  UAP C   4      27.807  84.322  13.809  1.00  0.00     0.210 HD
ENDBRANCH  25  34
BRANCH  27  36
HETATM   36  C6  UAP C   4      24.850  79.538  12.810  1.00 37.96     0.203 C 
HETATM   37  O6A UAP C   4      25.033  78.334  12.542  1.00 40.05    -0.646 OA
HETATM   38  O6B UAP C   4      23.720  80.047  12.968  1.00 36.71    -0.646 OA
ENDBRANCH  27  36
ENDBRANCH  22  23
ENDBRANCH  11  22
BRANCH  12  39
HETATM   39  C6  SGN C   3      32.032  79.627  10.407  1.00 42.65     0.227 C 
BRANCH  39  40
HETATM   40  O6  SGN C   3      33.405  79.698  10.850  1.00 51.09    -0.254 OA
BRANCH  40  41
HETATM   41  S2  SGN C   3      33.852  81.058  11.556  1.00 54.80     0.251 S 
HETATM   42  O4S SGN C   3      34.191  80.739  12.955  1.00 54.99    -0.572 OA
HETATM   43  O5S SGN C   3      32.686  81.988  11.467  1.00 53.99    -0.572 OA
HETATM   44  O6S SGN C   3      35.006  81.557  10.820  1.00 55.43    -0.572 OA
ENDBRANCH  40  41
ENDBRANCH  39  40
ENDBRANCH  12  39
ENDBRANCH   7   8
ENDBRANCH   4   7
BRANCH   3  45
HETATM   45  O3  IDS C   2      32.772  73.282  13.068  1.00 39.65    -0.390 OA
ATOM     46  H3  IDS C   2      32.709  72.424  13.470  1.00  0.00     0.210 HD
ENDBRANCH   3  45
BRANCH   5  47
HETATM   47  C6  IDS C   2      31.383  75.674   8.950  1.00 36.10     0.206 C 
HETATM   48  O6A IDS C   2      32.370  76.419   8.763  1.00 32.44    -0.646 OA
HETATM   49  O6B IDS C   2      30.244  75.885   8.470  1.00 33.44    -0.646 OA
ENDBRANCH   5  47
BRANCH   2  50
HETATM   50  O2  IDS C   2      31.443  71.031  12.092  1.00 43.59    -0.244 OA
BRANCH  50  51
HETATM   51  S   IDS C   2      32.535  69.870  12.164  1.00 44.11     0.252 S 
HETATM   52  O1S IDS C   2      33.282  69.895  10.860  1.00 44.48    -0.572 OA
HETATM   53  O2S IDS C   2      31.805  68.600  12.363  1.00 44.29    -0.572 OA
HETATM   54  O3S IDS C   2      33.401  70.175  13.289  1.00 44.74    -0.572 OA
ENDBRANCH  50  51
ENDBRANCH   2  50
BRANCH   1  55
HETATM   55  O4  SGN C   1      30.845  71.506   9.098  1.00 44.73    -0.348 OA
BRANCH  55  56
HETATM   56  C4  SGN C   1      29.746  71.048   8.280  1.00 48.25     0.186 C 
HETATM   57  C3  SGN C   1      29.863  71.646   6.873  1.00 48.43     0.178 C 
HETATM   58  C2  SGN C   1      28.795  71.046   5.958  1.00 48.58     0.181 C 
HETATM   59  C1  SGN C   1      28.834  69.519   5.975  1.00 50.40     0.283 C 
HETATM   60  O5  SGN C   1      28.719  69.038   7.319  1.00 50.82    -0.349 OA
HETATM   61  C5  SGN C   1      29.777  69.513   8.183  1.00 51.58     0.181 C 
BRANCH  57  62
HETATM   62  O3  SGN C   1      29.694  73.053   6.930  1.00 46.09    -0.391 OA
ATOM     63  H3  SGN C   1      28.929  73.299   6.423  1.00  0.00     0.210 HD
ENDBRANCH  57  62
BRANCH  58  64
HETATM   64  N2  SGN C   1      28.967  71.522   4.601  1.00 48.56    -0.289 N 
ATOM     65  H2  SGN C   1      29.821  71.366   4.066  1.00  0.00     0.175 HD
BRANCH  64  66
HETATM   66  S1  SGN C   1      27.665  72.340   3.989  1.00 47.67     0.205 S 
HETATM   67  O1S SGN C   1      26.639  71.325   3.665  1.00 47.59    -0.578 OA
HETATM   68  O2S SGN C   1      28.164  73.033   2.797  1.00 48.55    -0.578 OA
HETATM   69  O3S SGN C   1      27.219  73.276   5.044  1.00 47.08    -0.578 OA
ENDBRANCH  64  66
ENDBRANCH  58  64
BRANCH  59  70
HETATM   70  O1  SGN C   1      30.036  69.072   5.446  1.00 51.36    -0.369 OA
ATOM     71  H1  SGN C   1      30.335  69.671   4.771  1.00  0.00     0.212 HD
ENDBRANCH  59  70
BRANCH  61  72
HETATM   72  C6  SGN C   1      29.578  68.842   9.519  1.00 55.48     0.227 C 
BRANCH  72  73
HETATM   73  O6  SGN C   1      30.364  67.632   9.573  1.00 61.59    -0.254 OA
BRANCH  73  74
HETATM   74  S2  SGN C   1      29.588  66.345  10.104  1.00 65.98     0.251 S 
HETATM   75  O4S SGN C   1      30.607  65.205  10.184  1.00 65.09    -0.572 OA
HETATM   76  O5S SGN C   1      28.541  66.066   9.140  1.00 65.58    -0.572 OA
HETATM   77  O6S SGN C   1      29.006  66.705  11.507  1.00 65.84    -0.572 OA
ENDBRANCH  73  74
ENDBRANCH  72  73
ENDBRANCH  61  72
ENDBRANCH  55  56
ENDBRANCH   1  55
TORSDOF 27
ENDMDL
MODEL 88
REMARK VINA RESULT:      -4.8      7.641     12.887
REMARK  27 active torsions:
REMARK  status: ('A' for Active; 'I' for Inactive)
REMARK    1  A    between atoms: C1_1  and  O1_2 
REMARK    2  A    between atoms: S1_5  and  N2_7 
REMARK    3  A    between atoms: C2_6  and  N2_7 
REMARK    4  A    between atoms: S2_10  and  O6_22 
REMARK    5  A    between atoms: C3_11  and  O3_12 
REMARK    6  A    between atoms: C4_15  and  O4_16 
REMARK    7  A    between atoms: O4_16  and  C1_24 
REMARK    8  A    between atoms: C5_18  and  C6_21 
REMARK    9  A    between atoms: C6_21  and  O6_22 
REMARK   10  A    between atoms: C2_26  and  O2_27 
REMARK   11  A    between atoms: O2_27  and  S_40 
REMARK   12  A    between atoms: C3_29  and  O3_30 
REMARK   13  A    between atoms: C4_33  and  O4_34 
REMARK   14  A    between atoms: O4_34  and  C1_41 
REMARK   15  A    between atoms: C5_35  and  C6_37 
REMARK   16  A    between atoms: S1_43  and  N2_45 
REMARK   17  A    between atoms: C2_44  and  N2_45 
REMARK   18  A    between atoms: S2_48  and  O6_60 
REMARK   19  A    between atoms: C3_49  and  O3_50 
REMARK   20  A    between atoms: C4_53  and  O4_54 
REMARK   21  A    between atoms: O4_54  and  C1_62 
REMARK   22  A    between atoms: C5_56  and  C6_59 
REMARK   23  A    between atoms: C6_59  and  O6_60 
REMARK   24  A    between atoms: C2_64  and  O2_65 
REMARK   25  A    between atoms: O2_65  and  S_77 
REMARK   26  A    between atoms: C3_67  and  O3_68 
REMARK   27  A    between atoms: C5_72  and  C6_74 
ROOT
HETATM    1  C1  IDS C   2      31.359  72.070  14.580  1.00 40.81     0.294 C 
HETATM    2  C2  IDS C   2      31.258  73.305  13.681  1.00 40.20     0.231 C 
HETATM    3  C3  IDS C   2      30.660  72.947  12.323  1.00 39.01     0.185 C 
HETATM    4  C4  IDS C   2      31.529  71.902  11.595  1.00 37.65     0.195 C 
HETATM    5  C5  IDS C   2      32.407  71.157  12.608  1.00 35.99     0.257 C 
HETATM    6  O5  IDS C   2      31.643  70.883  13.807  1.00 39.00    -0.340 OA
ENDROOT
BRANCH   4   7
HETATM    7  O4  IDS C   2      30.680  70.963  10.889  1.00 35.98    -0.348 OA
BRANCH   7   8
HETATM    8  C1  SGN C   3      29.518  71.495  10.312  1.00 35.40     0.287 C 
HETATM    9  C2  SGN C   3      28.743  70.393   9.569  1.00 33.71     0.182 C 
HETATM   10  C3  SGN C   3      29.429  69.977   8.263  1.00 35.79     0.178 C 
HETATM   11  C4  SGN C   3      29.861  71.195   7.428  1.00 36.62     0.186 C 
HETATM   12  C5  SGN C   3      30.612  72.191   8.304  1.00 39.32     0.181 C 
HETATM   13  O5  SGN C   3      29.801  72.568   9.431  1.00 37.58    -0.349 OA
BRANCH   9  14
HETATM   14  N2  SGN C   3      28.621  69.231  10.421  1.00 29.28    -0.289 N 
ATOM     15  H2  SGN C   3      27.934  69.198  11.174  1.00  0.00     0.175 HD
BRANCH  14  16
HETATM   16  S1  SGN C   3      29.632  67.958  10.130  1.00 27.84     0.205 S 
HETATM   17  O1S SGN C   3      28.819  67.007   9.395  1.00 27.65    -0.578 OA
HETATM   18  O2S SGN C   3      30.030  67.456  11.478  1.00 27.72    -0.578 OA
HETATM   19  O3S SGN C   3      30.812  68.430   9.338  1.00 28.50    -0.578 OA
ENDBRANCH  14  16
ENDBRANCH   9  14
BRANCH  10  20
HETATM   20  O3  SGN C   3      28.548  69.153   7.504  1.00 34.89    -0.391 OA
ATOM     21  H3  SGN C   3      28.014  69.697   6.937  1.00  0.00     0.210 HD
ENDBRANCH  10  20
BRANCH  11  22
HETATM   22  O4  SGN C   3      30.740  70.759   6.375  1.00 37.13    -0.348 OA
BRANCH  22  23
HETATM   23  C1  UAP C   4      30.322  71.065   5.089  1.00 39.64     0.294 C 
HETATM   24  C2  UAP C   4      30.341  69.818   4.224  1.00 38.70     0.228 C 
HETATM   25  C3  UAP C   4      29.975  70.174   2.785  1.00 38.51     0.156 C 
HETATM   26  C4  UAP C   4      28.770  71.217   2.663  1.00 38.14     0.077 C 
HETATM   27  C5  UAP C   4      28.385  71.813   3.872  1.00 38.51     0.228 C 
HETATM   28  O5  UAP C   4      28.990  71.554   5.171  1.00 37.46    -0.343 OA
BRANCH  24  29
HETATM   29  O2  UAP C   4      31.686  69.241   4.201  1.00 40.54    -0.244 OA
BRANCH  29  30
HETATM   30  S   UAP C   4      31.905  67.664   4.038  1.00 40.49     0.252 S 
HETATM   31  O1S UAP C   4      32.323  67.431   2.648  1.00 40.89    -0.572 OA
HETATM   32  O2S UAP C   4      30.614  67.024   4.331  1.00 37.88    -0.572 OA
HETATM   33  O3S UAP C   4      32.947  67.270   4.999  1.00 37.47    -0.572 OA
ENDBRANCH  29  30
ENDBRANCH  24  29
BRANCH  25  34
HETATM   34  O3  UAP C   4      29.639  68.985   2.087  1.00 38.58    -0.393 OA
ATOM     35  H3  UAP C   4      28.768  68.709   2.348  1.00  0.00     0.210 HD
ENDBRANCH  25  34
BRANCH  27  36
HETATM   36  C6  UAP C   4      27.256  72.780   3.964  1.00 37.96     0.203 C 
HETATM   37  O6A UAP C   4      26.646  73.074   2.917  1.00 40.05    -0.646 OA
HETATM   38  O6B UAP C   4      26.972  73.253   5.085  1.00 36.71    -0.646 OA
ENDBRANCH  27  36
ENDBRANCH  22  23
ENDBRANCH  11  22
BRANCH  12  39
HETATM   39  C6  SGN C   3      31.006  73.459   7.599  1.00 42.65     0.227 C 
BRANCH  39  40
HETATM   40  O6  SGN C   3      32.268  73.852   8.180  1.00 51.09    -0.254 OA
BRANCH  40  41
HETATM   41  S2  SGN C   3      32.300  75.272   8.907  1.00 54.80     0.251 S 
HETATM   42  O4S SGN C   3      33.061  76.194   8.044  1.00 54.99    -0.572 OA
HETATM   43  O5S SGN C   3      32.975  75.062  10.223  1.00 53.99    -0.572 OA
HETATM   44  O6S SGN C   3      30.916  75.698   9.065  1.00 55.43    -0.572 OA
ENDBRANCH  40  41
ENDBRANCH  39  40
ENDBRANCH  12  39
ENDBRANCH   7   8
ENDBRANCH   4   7
BRANCH   3  45
HETATM   45  O3  IDS C   2      30.550  74.120  11.529  1.00 39.65    -0.390 OA
ATOM     46  H3  IDS C   2      30.804  73.923  10.636  1.00  0.00     0.210 HD
ENDBRANCH   3  45
BRANCH   5  47
HETATM   47  C6  IDS C   2      32.985  69.838  12.112  1.00 36.10     0.206 C 
HETATM   48  O6A IDS C   2      32.808  68.824  12.822  1.00 32.44    -0.646 OA
HETATM   49  O6B IDS C   2      33.592  69.829  11.015  1.00 33.44    -0.646 OA
ENDBRANCH   5  47
BRANCH   2  50
HETATM   50  O2  IDS C   2      30.399  74.301  14.309  1.00 43.59    -0.244 OA
BRANCH  50  51
HETATM   51  S   IDS C   2      30.724  75.852  14.123  1.00 44.11     0.252 S 
HETATM   52  O1S IDS C   2      29.664  76.413  13.218  1.00 44.48    -0.572 OA
HETATM   53  O2S IDS C   2      32.073  75.944  13.524  1.00 44.29    -0.572 OA
HETATM   54  O3S IDS C   2      30.680  76.453  15.444  1.00 44.74    -0.572 OA
ENDBRANCH  50  51
ENDBRANCH   2  50
BRANCH   1  55
HETATM   55  O4  SGN C   1      32.380  72.252  15.502  1.00 44.73    -0.348 OA
BRANCH  55  56
HETATM   56  C4  SGN C   1      32.257  71.586  16.778  1.00 48.25     0.186 C 
HETATM   57  C3  SGN C   1      33.316  70.483  16.893  1.00 48.43     0.178 C 
HETATM   58  C2  SGN C   1      33.294  69.879  18.296  1.00 48.58     0.181 C 
HETATM   59  C1  SGN C   1      33.419  70.956  19.373  1.00 50.40     0.283 C 
HETATM   60  O5  SGN C   1      32.397  71.946  19.201  1.00 50.82    -0.349 OA
HETATM   61  C5  SGN C   1      32.459  72.603  17.914  1.00 51.58     0.181 C 
BRANCH  57  62
HETATM   62  O3  SGN C   1      33.058  69.464  15.940  1.00 46.09    -0.391 OA
ATOM     63  H3  SGN C   1      32.170  69.145  16.054  1.00  0.00     0.210 HD
ENDBRANCH  57  62
BRANCH  58  64
HETATM   64  N2  SGN C   1      34.363  68.914  18.448  1.00 48.56    -0.289 N 
ATOM     65  H2  SGN C   1      35.349  69.166  18.368  1.00  0.00     0.175 HD
BRANCH  64  66
HETATM   66  S1  SGN C   1      33.857  67.370  18.761  1.00 47.67     0.205 S 
HETATM   67  O1S SGN C   1      35.034  66.631  19.268  1.00 47.59    -0.578 OA
HETATM   68  O2S SGN C   1      33.379  66.849  17.476  1.00 48.55    -0.578 OA
HETATM   69  O3S SGN C   1      32.779  67.474  19.768  1.00 47.08    -0.578 OA
ENDBRANCH  64  66
ENDBRANCH  58  64
BRANCH  59  70
HETATM   70  O1  SGN C   1      34.656  71.575  19.280  1.00 51.36    -0.369 OA
ATOM     71  H1  SGN C   1      34.880  71.977  20.111  1.00  0.00     0.212 HD
ENDBRANCH  59  70
BRANCH  61  72
HETATM   72  C6  SGN C   1      31.400  73.678  17.928  1.00 55.48     0.227 C 
BRANCH  72  73
HETATM   73  O6  SGN C   1      31.241  74.182  19.272  1.00 61.59    -0.254 OA
BRANCH  73  74
HETATM   74  S2  SGN C   1      30.885  75.731  19.375  1.00 65.98     0.251 S 
HETATM   75  O4S SGN C   1      30.887  76.097  20.862  1.00 65.09    -0.572 OA
HETATM   76  O5S SGN C   1      29.571  75.895  18.781  1.00 65.58    -0.572 OA
HETATM   77  O6S SGN C   1      31.982  76.510  18.583  1.00 65.84    -0.572 OA
ENDBRANCH  73  74
ENDBRANCH  72  73
ENDBRANCH  61  72
ENDBRANCH  55  56
ENDBRANCH   1  55
TORSDOF 27
ENDMDL
MODEL 89
REMARK VINA RESULT:      -4.8      5.669      9.674
REMARK  27 active torsions:
REMARK  status: ('A' for Active; 'I' for Inactive)
REMARK    1  A    between atoms: C1_1  and  O1_2 
REMARK    2  A    between atoms: S1_5  and  N2_7 
REMARK    3  A    between atoms: C2_6  and  N2_7 
REMARK    4  A    between atoms: S2_10  and  O6_22 
REMARK    5  A    between atoms: C3_11  and  O3_12 
REMARK    6  A    between atoms: C4_15  and  O4_16 
REMARK    7  A    between atoms: O4_16  and  C1_24 
REMARK    8  A    between atoms: C5_18  and  C6_21 
REMARK    9  A    between atoms: C6_21  and  O6_22 
REMARK   10  A    between atoms: C2_26  and  O2_27 
REMARK   11  A    between atoms: O2_27  and  S_40 
REMARK   12  A    between atoms: C3_29  and  O3_30 
REMARK   13  A    between atoms: C4_33  and  O4_34 
REMARK   14  A    between atoms: O4_34  and  C1_41 
REMARK   15  A    between atoms: C5_35  and  C6_37 
REMARK   16  A    between atoms: S1_43  and  N2_45 
REMARK   17  A    between atoms: C2_44  and  N2_45 
REMARK   18  A    between atoms: S2_48  and  O6_60 
REMARK   19  A    between atoms: C3_49  and  O3_50 
REMARK   20  A    between atoms: C4_53  and  O4_54 
REMARK   21  A    between atoms: O4_54  and  C1_62 
REMARK   22  A    between atoms: C5_56  and  C6_59 
REMARK   23  A    between atoms: C6_59  and  O6_60 
REMARK   24  A    between atoms: C2_64  and  O2_65 
REMARK   25  A    between atoms: O2_65  and  S_77 
REMARK   26  A    between atoms: C3_67  and  O3_68 
REMARK   27  A    between atoms: C5_72  and  C6_74 
ROOT
HETATM    1  C1  IDS C   2      31.452  73.045  15.213  1.00 40.81     0.294 C 
HETATM    2  C2  IDS C   2      31.146  73.893  13.976  1.00 40.20     0.231 C 
HETATM    3  C3  IDS C   2      31.161  73.042  12.710  1.00 39.01     0.185 C 
HETATM    4  C4  IDS C   2      32.541  72.385  12.502  1.00 37.65     0.195 C 
HETATM    5  C5  IDS C   2      33.301  72.337  13.834  1.00 35.99     0.257 C 
HETATM    6  O5  IDS C   2      32.389  71.990  14.903  1.00 39.00    -0.340 OA
ENDROOT
BRANCH   4   7
HETATM    7  O4  IDS C   2      32.372  71.044  11.979  1.00 35.98    -0.348 OA
BRANCH   7   8
HETATM    8  C1  SGN C   3      32.602  70.885  10.605  1.00 35.40     0.287 C 
HETATM    9  C2  SGN C   3      31.546  69.946   9.996  1.00 33.71     0.182 C 
HETATM   10  C3  SGN C   3      31.768  68.482  10.396  1.00 35.79     0.178 C 
HETATM   11  C4  SGN C   3      33.238  68.059  10.233  1.00 36.62     0.186 C 
HETATM   12  C5  SGN C   3      34.154  69.089  10.884  1.00 39.32     0.181 C 
HETATM   13  O5  SGN C   3      33.902  70.393  10.332  1.00 37.58    -0.349 OA
BRANCH   9  14
HETATM   14  N2  SGN C   3      30.229  70.352  10.434  1.00 29.28    -0.289 N 
ATOM     15  H2  SGN C   3      29.896  70.140  11.374  1.00  0.00     0.175 HD
BRANCH  14  16
HETATM   16  S1  SGN C   3      29.282  71.172   9.356  1.00 27.84     0.205 S 
HETATM   17  O1S SGN C   3      30.149  71.408   8.217  1.00 27.65    -0.578 OA
HETATM   18  O2S SGN C   3      28.893  72.432  10.056  1.00 27.72    -0.578 OA
HETATM   19  O3S SGN C   3      28.092  70.336   9.003  1.00 28.50    -0.578 OA
ENDBRANCH  14  16
ENDBRANCH   9  14
BRANCH  10  20
HETATM   20  O3  SGN C   3      30.928  67.642   9.608  1.00 34.89    -0.391 OA
ATOM     21  H3  SGN C   3      30.638  66.903  10.132  1.00  0.00     0.210 HD
ENDBRANCH  10  20
BRANCH  11  22
HETATM   22  O4  SGN C   3      33.440  66.792  10.884  1.00 37.13    -0.348 OA
BRANCH  22  23
HETATM   23  C1  UAP C   4      32.688  65.741  10.382  1.00 39.64     0.294 C 
HETATM   24  C2  UAP C   4      33.600  64.677   9.799  1.00 38.70     0.228 C 
HETATM   25  C3  UAP C   4      32.769  63.568   9.160  1.00 38.51     0.156 C 
HETATM   26  C4  UAP C   4      31.488  63.144  10.017  1.00 38.14     0.077 C 
HETATM   27  C5  UAP C   4      31.196  63.992  11.096  1.00 38.51     0.228 C 
HETATM   28  O5  UAP C   4      31.952  65.182  11.462  1.00 37.46    -0.343 OA
BRANCH  24  29
HETATM   29  O2  UAP C   4      34.438  65.254   8.746  1.00 40.54    -0.244 OA
BRANCH  29  30
HETATM   30  S   UAP C   4      35.914  64.701   8.470  1.00 40.49     0.252 S 
HETATM   31  O1S UAP C   4      36.781  65.872   8.274  1.00 40.89    -0.572 OA
HETATM   32  O2S UAP C   4      35.837  63.874   7.257  1.00 37.88    -0.572 OA
HETATM   33  O3S UAP C   4      36.309  63.915   9.650  1.00 37.47    -0.572 OA
ENDBRANCH  29  30
ENDBRANCH  24  29
BRANCH  25  34
HETATM   34  O3  UAP C   4      33.594  62.431   8.957  1.00 38.58    -0.393 OA
ATOM     35  H3  UAP C   4      34.162  62.323   9.712  1.00  0.00     0.210 HD
ENDBRANCH  25  34
BRANCH  27  36
HETATM   36  C6  UAP C   4      30.066  63.737  12.031  1.00 37.96     0.203 C 
HETATM   37  O6A UAP C   4      29.319  64.691  12.325  1.00 40.05    -0.646 OA
HETATM   38  O6B UAP C   4      29.919  62.581  12.481  1.00 36.71    -0.646 OA
ENDBRANCH  27  36
ENDBRANCH  22  23
ENDBRANCH  11  22
BRANCH  12  39
HETATM   39  C6  SGN C   3      35.621  68.809  10.707  1.00 42.65     0.227 C 
BRANCH  39  40
HETATM   40  O6  SGN C   3      36.261  70.103  10.659  1.00 51.09    -0.254 OA
BRANCH  40  41
HETATM   41  S2  SGN C   3      37.406  70.285   9.562  1.00 54.80     0.251 S 
HETATM   42  O4S SGN C   3      38.618  69.619  10.074  1.00 54.99    -0.572 OA
HETATM   43  O5S SGN C   3      37.610  71.755   9.397  1.00 53.99    -0.572 OA
HETATM   44  O6S SGN C   3      36.923  69.659   8.338  1.00 55.43    -0.572 OA
ENDBRANCH  40  41
ENDBRANCH  39  40
ENDBRANCH  12  39
ENDBRANCH   7   8
ENDBRANCH   4   7
BRANCH   3  45
HETATM   45  O3  IDS C   2      30.841  73.854  11.589  1.00 39.65    -0.390 OA
ATOM     46  H3  IDS C   2      30.684  74.745  11.877  1.00  0.00     0.210 HD
ENDBRANCH   3  45
BRANCH   5  47
HETATM   47  C6  IDS C   2      34.464  71.356  13.876  1.00 36.10     0.206 C 
HETATM   48  O6A IDS C   2      35.526  71.691  13.306  1.00 32.44    -0.646 OA
HETATM   49  O6B IDS C   2      34.308  70.273  14.489  1.00 33.44    -0.646 OA
ENDBRANCH   5  47
BRANCH   2  50
HETATM   50  O2  IDS C   2      29.824  74.493  14.107  1.00 43.59    -0.244 OA
BRANCH  50  51
HETATM   51  S   IDS C   2      29.653  76.070  13.934  1.00 44.11     0.252 S 
HETATM   52  O1S IDS C   2      30.508  76.717  14.986  1.00 44.48    -0.572 OA
HETATM   53  O2S IDS C   2      28.218  76.373  14.119  1.00 44.29    -0.572 OA
HETATM   54  O3S IDS C   2      30.104  76.399  12.594  1.00 44.74    -0.572 OA
ENDBRANCH  50  51
ENDBRANCH   2  50
BRANCH   1  55
HETATM   55  O4  SGN C   1      32.002  73.849  16.201  1.00 44.73    -0.348 OA
BRANCH  55  56
HETATM   56  C4  SGN C   1      31.885  73.403  17.570  1.00 48.25     0.186 C 
HETATM   57  C3  SGN C   1      33.157  72.653  17.982  1.00 48.43     0.178 C 
HETATM   58  C2  SGN C   1      33.107  72.314  19.471  1.00 48.58     0.181 C 
HETATM   59  C1  SGN C   1      32.830  73.554  20.320  1.00 50.40     0.283 C 
HETATM   60  O5  SGN C   1      31.629  74.197  19.877  1.00 50.82    -0.349 OA
HETATM   61  C5  SGN C   1      31.690  74.617  18.495  1.00 51.58     0.181 C 
BRANCH  57  62
HETATM   62  O3  SGN C   1      33.276  71.454  17.233  1.00 46.09    -0.391 OA
ATOM     63  H3  SGN C   1      32.705  71.500  16.475  1.00  0.00     0.210 HD
ENDBRANCH  57  62
BRANCH  58  64
HETATM   64  N2  SGN C   1      34.351  71.704  19.893  1.00 48.56    -0.289 N 
ATOM     65  H2  SGN C   1      35.207  72.239  20.037  1.00  0.00     0.175 HD
BRANCH  64  66
HETATM   66  S1  SGN C   1      34.271  70.067  20.123  1.00 47.67     0.205 S 
HETATM   67  O1S SGN C   1      34.979  69.443  18.984  1.00 47.59    -0.578 OA
HETATM   68  O2S SGN C   1      32.840  69.745  20.137  1.00 48.55    -0.578 OA
HETATM   69  O3S SGN C   1      34.928  69.788  21.418  1.00 47.08    -0.578 OA
ENDBRANCH  64  66
ENDBRANCH  58  64
BRANCH  59  70
HETATM   70  O1  SGN C   1      33.882  74.450  20.203  1.00 51.36    -0.369 OA
ATOM     71  H1  SGN C   1      34.426  74.414  20.981  1.00  0.00     0.212 HD
ENDBRANCH  59  70
BRANCH  61  72
HETATM   72  C6  SGN C   1      30.409  75.362  18.214  1.00 55.48     0.227 C 
BRANCH  72  73
HETATM   73  O6  SGN C   1      30.244  76.421  19.181  1.00 61.59    -0.254 OA
BRANCH  73  74
HETATM   74  S2  SGN C   1      28.850  76.421  19.953  1.00 65.98     0.251 S 
HETATM   75  O4S SGN C   1      27.750  76.563  18.898  1.00 65.09    -0.572 OA
HETATM   76  O5S SGN C   1      28.878  77.555  20.859  1.00 65.58    -0.572 OA
HETATM   77  O6S SGN C   1      28.748  75.066  20.720  1.00 65.84    -0.572 OA
ENDBRANCH  73  74
ENDBRANCH  72  73
ENDBRANCH  61  72
ENDBRANCH  55  56
ENDBRANCH   1  55
TORSDOF 27
ENDMDL
MODEL 90
REMARK VINA RESULT:      -4.8      5.273      8.944
REMARK  27 active torsions:
REMARK  status: ('A' for Active; 'I' for Inactive)
REMARK    1  A    between atoms: C1_1  and  O1_2 
REMARK    2  A    between atoms: S1_5  and  N2_7 
REMARK    3  A    between atoms: C2_6  and  N2_7 
REMARK    4  A    between atoms: S2_10  and  O6_22 
REMARK    5  A    between atoms: C3_11  and  O3_12 
REMARK    6  A    between atoms: C4_15  and  O4_16 
REMARK    7  A    between atoms: O4_16  and  C1_24 
REMARK    8  A    between atoms: C5_18  and  C6_21 
REMARK    9  A    between atoms: C6_21  and  O6_22 
REMARK   10  A    between atoms: C2_26  and  O2_27 
REMARK   11  A    between atoms: O2_27  and  S_40 
REMARK   12  A    between atoms: C3_29  and  O3_30 
REMARK   13  A    between atoms: C4_33  and  O4_34 
REMARK   14  A    between atoms: O4_34  and  C1_41 
REMARK   15  A    between atoms: C5_35  and  C6_37 
REMARK   16  A    between atoms: S1_43  and  N2_45 
REMARK   17  A    between atoms: C2_44  and  N2_45 
REMARK   18  A    between atoms: S2_48  and  O6_60 
REMARK   19  A    between atoms: C3_49  and  O3_50 
REMARK   20  A    between atoms: C4_53  and  O4_54 
REMARK   21  A    between atoms: O4_54  and  C1_62 
REMARK   22  A    between atoms: C5_56  and  C6_59 
REMARK   23  A    between atoms: C6_59  and  O6_60 
REMARK   24  A    between atoms: C2_64  and  O2_65 
REMARK   25  A    between atoms: O2_65  and  S_77 
REMARK   26  A    between atoms: C3_67  and  O3_68 
REMARK   27  A    between atoms: C5_72  and  C6_74 
ROOT
HETATM    1  C1  IDS C   2      31.410  73.151  11.640  1.00 40.81     0.294 C 
HETATM    2  C2  IDS C   2      31.295  74.405  12.511  1.00 40.20     0.231 C 
HETATM    3  C3  IDS C   2      32.223  74.320  13.720  1.00 39.01     0.185 C 
HETATM    4  C4  IDS C   2      31.877  73.101  14.598  1.00 37.65     0.195 C 
HETATM    5  C5  IDS C   2      31.095  72.070  13.774  1.00 35.99     0.257 C 
HETATM    6  O5  IDS C   2      31.662  71.978  12.445  1.00 39.00    -0.340 OA
ENDROOT
BRANCH   4   7
HETATM    7  O4  IDS C   2      33.094  72.505  15.113  1.00 35.98    -0.348 OA
BRANCH   7   8
HETATM    8  C1  SGN C   3      33.580  73.036  16.316  1.00 35.40     0.287 C 
HETATM    9  C2  SGN C   3      35.119  72.995  16.330  1.00 33.71     0.182 C 
HETATM   10  C3  SGN C   3      35.661  71.574  16.518  1.00 35.79     0.178 C 
HETATM   11  C4  SGN C   3      34.944  70.831  17.659  1.00 36.62     0.186 C 
HETATM   12  C5  SGN C   3      33.434  70.968  17.504  1.00 39.32     0.181 C 
HETATM   13  O5  SGN C   3      33.067  72.358  17.448  1.00 37.58    -0.349 OA
BRANCH   9  14
HETATM   14  N2  SGN C   3      35.627  73.526  15.084  1.00 29.28    -0.289 N 
ATOM     15  H2  SGN C   3      35.631  74.529  14.901  1.00  0.00     0.175 HD
BRANCH  14  16
HETATM   16  S1  SGN C   3      36.202  72.450  13.971  1.00 27.84     0.205 S 
HETATM   17  O1S SGN C   3      35.828  73.018  12.689  1.00 27.65    -0.578 OA
HETATM   18  O2S SGN C   3      35.494  71.168  14.262  1.00 27.72    -0.578 OA
HETATM   19  O3S SGN C   3      37.685  72.319  14.125  1.00 28.50    -0.578 OA
ENDBRANCH  14  16
ENDBRANCH   9  14
BRANCH  10  20
HETATM   20  O3  SGN C   3      37.062  71.630  16.777  1.00 34.89    -0.391 OA
ATOM     21  H3  SGN C   3      37.430  72.403  16.363  1.00  0.00     0.210 HD
ENDBRANCH  10  20
BRANCH  11  22
HETATM   22  O4  SGN C   3      35.285  69.434  17.601  1.00 37.13    -0.348 OA
BRANCH  22  23
HETATM   23  C1  UAP C   4      36.029  68.961  18.671  1.00 39.64     0.294 C 
HETATM   24  C2  UAP C   4      37.384  68.476  18.190  1.00 38.70     0.228 C 
HETATM   25  C3  UAP C   4      38.164  67.865  19.352  1.00 38.51     0.156 C 
HETATM   26  C4  UAP C   4      38.045  68.691  20.715  1.00 38.14     0.077 C 
HETATM   27  C5  UAP C   4      37.080  69.708  20.703  1.00 38.51     0.228 C 
HETATM   28  O5  UAP C   4      36.216  70.039  19.579  1.00 37.46    -0.343 OA
BRANCH  24  29
HETATM   29  O2  UAP C   4      37.215  67.428  17.182  1.00 40.54    -0.244 OA
BRANCH  29  30
HETATM   30  S   UAP C   4      37.705  67.648  15.673  1.00 40.49     0.252 S 
HETATM   31  O1S UAP C   4      38.919  66.838  15.496  1.00 40.89    -0.572 OA
HETATM   32  O2S UAP C   4      37.983  69.083  15.522  1.00 37.88    -0.572 OA
HETATM   33  O3S UAP C   4      36.613  67.201  14.795  1.00 37.47    -0.572 OA
ENDBRANCH  29  30
ENDBRANCH  24  29
BRANCH  25  34
HETATM   34  O3  UAP C   4      39.531  67.760  18.985  1.00 38.58    -0.393 OA
ATOM     35  H3  UAP C   4      39.735  68.441  18.355  1.00  0.00     0.210 HD
ENDBRANCH  25  34
BRANCH  27  36
HETATM   36  C6  UAP C   4      36.852  70.609  21.867  1.00 37.96     0.203 C 
HETATM   37  O6A UAP C   4      35.994  70.276  22.710  1.00 40.05    -0.646 OA
HETATM   38  O6B UAP C   4      37.527  71.657  21.945  1.00 36.71    -0.646 OA
ENDBRANCH  27  36
ENDBRANCH  22  23
ENDBRANCH  11  22
BRANCH  12  39
HETATM   39  C6  SGN C   3      32.641  70.345  18.619  1.00 42.65     0.227 C 
BRANCH  39  40
HETATM   40  O6  SGN C   3      31.696  71.355  19.037  1.00 51.09    -0.254 OA
BRANCH  40  41
HETATM   41  S2  SGN C   3      31.795  71.829  20.557  1.00 54.80     0.251 S 
HETATM   42  O4S SGN C   3      30.432  71.792  21.120  1.00 54.99    -0.572 OA
HETATM   43  O5S SGN C   3      32.348  73.216  20.537  1.00 53.99    -0.572 OA
HETATM   44  O6S SGN C   3      32.684  70.895  21.235  1.00 55.43    -0.572 OA
ENDBRANCH  40  41
ENDBRANCH  39  40
ENDBRANCH  12  39
ENDBRANCH   7   8
ENDBRANCH   4   7
BRANCH   3  45
HETATM   45  O3  IDS C   2      32.115  75.512  14.485  1.00 39.65    -0.390 OA
ATOM     46  H3  IDS C   2      31.432  76.062  14.121  1.00  0.00     0.210 HD
ENDBRANCH   3  45
BRANCH   5  47
HETATM   47  C6  IDS C   2      31.061  70.667  14.364  1.00 36.10     0.206 C 
HETATM   48  O6A IDS C   2      31.352  69.713  13.610  1.00 32.44    -0.646 OA
HETATM   49  O6B IDS C   2      30.759  70.538  15.575  1.00 33.44    -0.646 OA
ENDBRANCH   5  47
BRANCH   2  50
HETATM   50  O2  IDS C   2      31.666  75.580  11.733  1.00 43.59    -0.244 OA
BRANCH  50  51
HETATM   51  S   IDS C   2      30.962  76.980  12.034  1.00 44.11     0.252 S 
HETATM   52  O1S IDS C   2      30.515  77.534  10.711  1.00 44.48    -0.572 OA
HETATM   53  O2S IDS C   2      31.971  77.841  12.686  1.00 44.29    -0.572 OA
HETATM   54  O3S IDS C   2      29.839  76.707  12.912  1.00 44.74    -0.572 OA
ENDBRANCH  50  51
ENDBRANCH   2  50
BRANCH   1  55
HETATM   55  O4  SGN C   1      30.226  72.963  10.942  1.00 44.73    -0.348 OA
BRANCH  55  56
HETATM   56  C4  SGN C   1      30.245  72.046   9.826  1.00 48.25     0.186 C 
HETATM   57  C3  SGN C   1      29.320  70.857  10.116  1.00 48.43     0.178 C 
HETATM   58  C2  SGN C   1      29.213  69.963   8.882  1.00 48.58     0.181 C 
HETATM   59  C1  SGN C   1      28.808  70.760   7.643  1.00 50.40     0.283 C 
HETATM   60  O5  SGN C   1      29.718  71.848   7.438  1.00 50.82    -0.349 OA
HETATM   61  C5  SGN C   1      29.762  72.766   8.556  1.00 51.58     0.181 C 
BRANCH  57  62
HETATM   62  O3  SGN C   1      29.831  70.100  11.201  1.00 46.09    -0.391 OA
ATOM     63  H3  SGN C   1      29.123  69.607  11.601  1.00  0.00     0.210 HD
ENDBRANCH  57  62
BRANCH  58  64
HETATM   64  N2  SGN C   1      28.256  68.899   9.109  1.00 48.56    -0.289 N 
ATOM     65  H2  SGN C   1      27.265  69.075   9.274  1.00  0.00     0.175 HD
BRANCH  64  66
HETATM   66  S1  SGN C   1      28.901  67.376   9.081  1.00 47.67     0.205 S 
HETATM   67  O1S SGN C   1      29.225  67.078   7.669  1.00 47.59    -0.578 OA
HETATM   68  O2S SGN C   1      27.854  66.499   9.613  1.00 48.55    -0.578 OA
HETATM   69  O3S SGN C   1      30.104  67.410   9.941  1.00 47.08    -0.578 OA
ENDBRANCH  64  66
ENDBRANCH  58  64
BRANCH  59  70
HETATM   70  O1  SGN C   1      27.531  71.276   7.811  1.00 51.36    -0.369 OA
ATOM     71  H1  SGN C   1      27.582  72.195   8.043  1.00  0.00     0.212 HD
ENDBRANCH  59  70
BRANCH  61  72
HETATM   72  C6  SGN C   1      30.672  73.898   8.148  1.00 55.48     0.227 C 
BRANCH  72  73
HETATM   73  O6  SGN C   1      30.035  75.159   8.444  1.00 61.59    -0.254 OA
BRANCH  73  74
HETATM   74  S2  SGN C   1      29.896  76.154   7.207  1.00 65.98     0.251 S 
HETATM   75  O4S SGN C   1      28.546  76.861   7.345  1.00 65.09    -0.572 OA
HETATM   76  O5S SGN C   1      29.957  75.336   6.009  1.00 65.58    -0.572 OA
HETATM   77  O6S SGN C   1      31.090  77.157   7.286  1.00 65.84    -0.572 OA
ENDBRANCH  73  74
ENDBRANCH  72  73
ENDBRANCH  61  72
ENDBRANCH  55  56
ENDBRANCH   1  55
TORSDOF 27
ENDMDL
MODEL 91
REMARK VINA RESULT:      -4.8      2.944     11.692
REMARK  27 active torsions:
REMARK  status: ('A' for Active; 'I' for Inactive)
REMARK    1  A    between atoms: C1_1  and  O1_2 
REMARK    2  A    between atoms: S1_5  and  N2_7 
REMARK    3  A    between atoms: C2_6  and  N2_7 
REMARK    4  A    between atoms: S2_10  and  O6_22 
REMARK    5  A    between atoms: C3_11  and  O3_12 
REMARK    6  A    between atoms: C4_15  and  O4_16 
REMARK    7  A    between atoms: O4_16  and  C1_24 
REMARK    8  A    between atoms: C5_18  and  C6_21 
REMARK    9  A    between atoms: C6_21  and  O6_22 
REMARK   10  A    between atoms: C2_26  and  O2_27 
REMARK   11  A    between atoms: O2_27  and  S_40 
REMARK   12  A    between atoms: C3_29  and  O3_30 
REMARK   13  A    between atoms: C4_33  and  O4_34 
REMARK   14  A    between atoms: O4_34  and  C1_41 
REMARK   15  A    between atoms: C5_35  and  C6_37 
REMARK   16  A    between atoms: S1_43  and  N2_45 
REMARK   17  A    between atoms: C2_44  and  N2_45 
REMARK   18  A    between atoms: S2_48  and  O6_60 
REMARK   19  A    between atoms: C3_49  and  O3_50 
REMARK   20  A    between atoms: C4_53  and  O4_54 
REMARK   21  A    between atoms: O4_54  and  C1_62 
REMARK   22  A    between atoms: C5_56  and  C6_59 
REMARK   23  A    between atoms: C6_59  and  O6_60 
REMARK   24  A    between atoms: C2_64  and  O2_65 
REMARK   25  A    between atoms: O2_65  and  S_77 
REMARK   26  A    between atoms: C3_67  and  O3_68 
REMARK   27  A    between atoms: C5_72  and  C6_74 
ROOT
HETATM    1  C1  IDS C   2      34.552  70.111  19.148  1.00 40.81     0.294 C 
HETATM    2  C2  IDS C   2      34.407  70.087  17.624  1.00 40.20     0.231 C 
HETATM    3  C3  IDS C   2      34.024  71.463  17.088  1.00 39.01     0.185 C 
HETATM    4  C4  IDS C   2      32.682  71.935  17.683  1.00 37.65     0.195 C 
HETATM    5  C5  IDS C   2      32.392  71.173  18.983  1.00 35.99     0.257 C 
HETATM    6  O5  IDS C   2      33.613  71.032  19.747  1.00 39.00    -0.340 OA
ENDROOT
BRANCH   4   7
HETATM    7  O4  IDS C   2      32.733  73.360  17.943  1.00 35.98    -0.348 OA
BRANCH   7   8
HETATM    8  C1  SGN C   3      33.361  74.143  16.964  1.00 35.40     0.287 C 
HETATM    9  C2  SGN C   3      33.226  75.635  17.313  1.00 33.71     0.182 C 
HETATM   10  C3  SGN C   3      31.802  76.160  17.091  1.00 35.79     0.178 C 
HETATM   11  C4  SGN C   3      31.233  75.718  15.732  1.00 36.62     0.186 C 
HETATM   12  C5  SGN C   3      31.445  74.223  15.537  1.00 39.32     0.181 C 
HETATM   13  O5  SGN C   3      32.841  73.899  15.669  1.00 37.58    -0.349 OA
BRANCH   9  14
HETATM   14  N2  SGN C   3      33.587  75.842  18.698  1.00 29.28    -0.289 N 
ATOM     15  H2  SGN C   3      33.122  75.329  19.447  1.00  0.00     0.175 HD
BRANCH  14  16
HETATM   16  S1  SGN C   3      34.779  76.937  19.025  1.00 27.84     0.205 S 
HETATM   17  O1S SGN C   3      34.555  77.319  20.406  1.00 27.65    -0.578 OA
HETATM   18  O2S SGN C   3      34.549  78.062  18.071  1.00 27.72    -0.578 OA
HETATM   19  O3S SGN C   3      36.116  76.294  18.821  1.00 28.50    -0.578 OA
ENDBRANCH  14  16
ENDBRANCH   9  14
BRANCH  10  20
HETATM   20  O3  SGN C   3      31.800  77.582  17.184  1.00 34.89    -0.391 OA
ATOM     21  H3  SGN C   3      31.321  77.947  16.449  1.00  0.00     0.210 HD
ENDBRANCH  10  20
BRANCH  11  22
HETATM   22  O4  SGN C   3      29.820  75.988  15.702  1.00 37.13    -0.348 OA
BRANCH  22  23
HETATM   23  C1  UAP C   4      29.470  77.282  15.349  1.00 39.64     0.294 C 
HETATM   24  C2  UAP C   4      29.908  77.572  13.925  1.00 38.70     0.228 C 
HETATM   25  C3  UAP C   4      29.610  79.026  13.571  1.00 38.51     0.156 C 
HETATM   26  C4  UAP C   4      28.190  79.542  14.094  1.00 38.14     0.077 C 
HETATM   27  C5  UAP C   4      27.539  78.669  14.978  1.00 38.51     0.228 C 
HETATM   28  O5  UAP C   4      28.055  77.385  15.430  1.00 37.46    -0.343 OA
BRANCH  24  29
HETATM   29  O2  UAP C   4      31.353  77.379  13.794  1.00 40.54    -0.244 OA
BRANCH  29  30
HETATM   30  S   UAP C   4      32.007  76.969  12.391  1.00 40.49     0.252 S 
HETATM   31  O1S UAP C   4      32.526  78.203  11.784  1.00 40.89    -0.572 OA
HETATM   32  O2S UAP C   4      30.935  76.374  11.581  1.00 37.88    -0.572 OA
HETATM   33  O3S UAP C   4      33.081  76.005  12.680  1.00 37.47    -0.572 OA
ENDBRANCH  29  30
ENDBRANCH  24  29
BRANCH  25  34
HETATM   34  O3  UAP C   4      29.675  79.181  12.162  1.00 38.58    -0.393 OA
ATOM     35  H3  UAP C   4      29.578  80.101  11.947  1.00  0.00     0.210 HD
ENDBRANCH  25  34
BRANCH  27  36
HETATM   36  C6  UAP C   4      26.190  78.959  15.539  1.00 37.96     0.203 C 
HETATM   37  O6A UAP C   4      25.642  80.036  15.229  1.00 40.05    -0.646 OA
HETATM   38  O6B UAP C   4      25.669  78.112  16.295  1.00 36.71    -0.646 OA
ENDBRANCH  27  36
ENDBRANCH  22  23
ENDBRANCH  11  22
BRANCH  12  39
HETATM   39  C6  SGN C   3      30.996  73.705  14.198  1.00 42.65     0.227 C 
BRANCH  39  40
HETATM   40  O6  SGN C   3      30.500  72.371  14.442  1.00 51.09    -0.254 OA
BRANCH  40  41
HETATM   41  S2  SGN C   3      31.030  71.229  13.462  1.00 54.80     0.251 S 
HETATM   42  O4S SGN C   3      30.252  71.321  12.213  1.00 54.99    -0.572 OA
HETATM   43  O5S SGN C   3      30.804  69.928  14.161  1.00 53.99    -0.572 OA
HETATM   44  O6S SGN C   3      32.446  71.489  13.236  1.00 55.43    -0.572 OA
ENDBRANCH  40  41
ENDBRANCH  39  40
ENDBRANCH  12  39
ENDBRANCH   7   8
ENDBRANCH   4   7
BRANCH   3  45
HETATM   45  O3  IDS C   2      33.931  71.410  15.671  1.00 39.65    -0.390 OA
ATOM     46  H3  IDS C   2      33.244  70.805  15.421  1.00  0.00     0.210 HD
ENDBRANCH   3  45
BRANCH   5  47
HETATM   47  C6  IDS C   2      31.348  71.817  19.886  1.00 36.10     0.206 C 
HETATM   48  O6A IDS C   2      30.149  71.519  19.691  1.00 32.44    -0.646 OA
HETATM   49  O6B IDS C   2      31.740  72.598  20.786  1.00 33.44    -0.646 OA
ENDBRANCH   5  47
BRANCH   2  50
HETATM   50  O2  IDS C   2      35.672  69.696  17.017  1.00 43.59    -0.244 OA
BRANCH  50  51
HETATM   51  S   IDS C   2      35.741  68.384  16.111  1.00 44.11     0.252 S 
HETATM   52  O1S IDS C   2      35.710  67.208  17.046  1.00 44.48    -0.572 OA
HETATM   53  O2S IDS C   2      37.002  68.452  15.343  1.00 44.29    -0.572 OA
HETATM   54  O3S IDS C   2      34.579  68.412  15.241  1.00 44.74    -0.572 OA
ENDBRANCH  50  51
ENDBRANCH   2  50
BRANCH   1  55
HETATM   55  O4  SGN C   1      34.312  68.842  19.656  1.00 44.73    -0.348 OA
BRANCH  55  56
HETATM   56  C4  SGN C   1      35.241  68.326  20.634  1.00 48.25     0.186 C 
HETATM   57  C3  SGN C   1      35.451  69.360  21.747  1.00 48.43     0.178 C 
HETATM   58  C2  SGN C   1      36.308  68.763  22.863  1.00 48.58     0.181 C 
HETATM   59  C1  SGN C   1      35.735  67.438  23.364  1.00 50.40     0.283 C 
HETATM   60  O5  SGN C   1      35.570  66.527  22.270  1.00 50.82    -0.349 OA
HETATM   61  C5  SGN C   1      34.682  67.029  21.245  1.00 51.58     0.181 C 
BRANCH  57  62
HETATM   62  O3  SGN C   1      36.097  70.509  21.224  1.00 46.09    -0.391 OA
ATOM     63  H3  SGN C   1      35.640  71.288  21.520  1.00  0.00     0.210 HD
ENDBRANCH  57  62
BRANCH  58  64
HETATM   64  N2  SGN C   1      36.420  69.693  23.967  1.00 48.56    -0.289 N 
ATOM     65  H2  SGN C   1      37.242  69.737  24.570  1.00  0.00     0.175 HD
BRANCH  64  66
HETATM   66  S1  SGN C   1      35.107  70.678  24.173  1.00 47.67     0.205 S 
HETATM   67  O1S SGN C   1      34.653  70.496  25.568  1.00 47.59    -0.578 OA
HETATM   68  O2S SGN C   1      34.116  70.216  23.196  1.00 48.55    -0.578 OA
HETATM   69  O3S SGN C   1      35.567  72.058  23.905  1.00 47.08    -0.578 OA
ENDBRANCH  64  66
ENDBRANCH  58  64
BRANCH  59  70
HETATM   70  O1  SGN C   1      34.498  67.652  23.953  1.00 51.36    -0.369 OA
ATOM     71  H1  SGN C   1      33.916  66.928  23.755  1.00  0.00     0.212 HD
ENDBRANCH  59  70
BRANCH  61  72
HETATM   72  C6  SGN C   1      34.529  65.926  20.228  1.00 55.48     0.227 C 
BRANCH  72  73
HETATM   73  O6  SGN C   1      33.340  65.160  20.522  1.00 61.59    -0.254 OA
BRANCH  73  74
HETATM   74  S2  SGN C   1      33.601  63.725  21.164  1.00 65.98     0.251 S 
HETATM   75  O4S SGN C   1      35.095  63.429  21.015  1.00 65.09    -0.572 OA
HETATM   76  O5S SGN C   1      32.787  62.784  20.418  1.00 65.58    -0.572 OA
HETATM   77  O6S SGN C   1      33.170  63.807  22.662  1.00 65.84    -0.572 OA
ENDBRANCH  73  74
ENDBRANCH  72  73
ENDBRANCH  61  72
ENDBRANCH  55  56
ENDBRANCH   1  55
TORSDOF 27
ENDMDL
MODEL 92
REMARK VINA RESULT:      -4.8      6.047     11.530
REMARK  27 active torsions:
REMARK  status: ('A' for Active; 'I' for Inactive)
REMARK    1  A    between atoms: C1_1  and  O1_2 
REMARK    2  A    between atoms: S1_5  and  N2_7 
REMARK    3  A    between atoms: C2_6  and  N2_7 
REMARK    4  A    between atoms: S2_10  and  O6_22 
REMARK    5  A    between atoms: C3_11  and  O3_12 
REMARK    6  A    between atoms: C4_15  and  O4_16 
REMARK    7  A    between atoms: O4_16  and  C1_24 
REMARK    8  A    between atoms: C5_18  and  C6_21 
REMARK    9  A    between atoms: C6_21  and  O6_22 
REMARK   10  A    between atoms: C2_26  and  O2_27 
REMARK   11  A    between atoms: O2_27  and  S_40 
REMARK   12  A    between atoms: C3_29  and  O3_30 
REMARK   13  A    between atoms: C4_33  and  O4_34 
REMARK   14  A    between atoms: O4_34  and  C1_41 
REMARK   15  A    between atoms: C5_35  and  C6_37 
REMARK   16  A    between atoms: S1_43  and  N2_45 
REMARK   17  A    between atoms: C2_44  and  N2_45 
REMARK   18  A    between atoms: S2_48  and  O6_60 
REMARK   19  A    between atoms: C3_49  and  O3_50 
REMARK   20  A    between atoms: C4_53  and  O4_54 
REMARK   21  A    between atoms: O4_54  and  C1_62 
REMARK   22  A    between atoms: C5_56  and  C6_59 
REMARK   23  A    between atoms: C6_59  and  O6_60 
REMARK   24  A    between atoms: C2_64  and  O2_65 
REMARK   25  A    between atoms: O2_65  and  S_77 
REMARK   26  A    between atoms: C3_67  and  O3_68 
REMARK   27  A    between atoms: C5_72  and  C6_74 
ROOT
HETATM    1  C1  IDS C   2      31.444  70.823  10.536  1.00 40.81     0.294 C 
HETATM    2  C2  IDS C   2      30.851  72.219  10.332  1.00 40.20     0.231 C 
HETATM    3  C3  IDS C   2      31.558  73.248  11.209  1.00 39.01     0.185 C 
HETATM    4  C4  IDS C   2      31.419  72.890  12.703  1.00 37.65     0.195 C 
HETATM    5  C5  IDS C   2      31.093  71.399  12.853  1.00 35.99     0.257 C 
HETATM    6  O5  IDS C   2      31.872  70.632  11.903  1.00 39.00    -0.340 OA
ENDROOT
BRANCH   4   7
HETATM    7  O4  IDS C   2      32.651  73.201  13.399  1.00 35.98    -0.348 OA
BRANCH   7   8
HETATM    8  C1  SGN C   3      32.676  74.420  14.093  1.00 35.40     0.287 C 
HETATM    9  C2  SGN C   3      34.033  75.118  13.888  1.00 33.71     0.182 C 
HETATM   10  C3  SGN C   3      35.163  74.434  14.666  1.00 35.79     0.178 C 
HETATM   11  C4  SGN C   3      34.759  74.131  16.119  1.00 36.62     0.186 C 
HETATM   12  C5  SGN C   3      33.399  73.446  16.152  1.00 39.32     0.181 C 
HETATM   13  O5  SGN C   3      32.420  74.255  15.476  1.00 37.58    -0.349 OA
BRANCH   9  14
HETATM   14  N2  SGN C   3      34.369  75.116  12.481  1.00 29.28    -0.289 N 
ATOM     15  H2  SGN C   3      34.557  74.245  11.985  1.00  0.00     0.175 HD
BRANCH  14  16
HETATM   16  S1  SGN C   3      34.440  76.574  11.708  1.00 27.84     0.205 S 
HETATM   17  O1S SGN C   3      34.377  77.555  12.775  1.00 27.65    -0.578 OA
HETATM   18  O2S SGN C   3      33.239  76.606  10.823  1.00 27.72    -0.578 OA
HETATM   19  O3S SGN C   3      35.714  76.662  10.928  1.00 28.50    -0.578 OA
ENDBRANCH  14  16
ENDBRANCH   9  14
BRANCH  10  20
HETATM   20  O3  SGN C   3      36.324  75.261  14.644  1.00 34.89    -0.391 OA
ATOM     21  H3  SGN C   3      37.102  74.715  14.631  1.00  0.00     0.210 HD
ENDBRANCH  10  20
BRANCH  11  22
HETATM   22  O4  SGN C   3      35.731  73.247  16.706  1.00 37.13    -0.348 OA
BRANCH  22  23
HETATM   23  C1  UAP C   4      36.580  73.830  17.633  1.00 39.64     0.294 C 
HETATM   24  C2  UAP C   4      38.027  73.601  17.232  1.00 38.70     0.228 C 
HETATM   25  C3  UAP C   4      38.961  74.159  18.303  1.00 38.51     0.156 C 
HETATM   26  C4  UAP C   4      38.505  75.576  18.885  1.00 38.14     0.077 C 
HETATM   27  C5  UAP C   4      37.220  75.983  18.499  1.00 38.51     0.228 C 
HETATM   28  O5  UAP C   4      36.316  75.227  17.643  1.00 37.46    -0.343 OA
BRANCH  24  29
HETATM   29  O2  UAP C   4      38.297  72.167  17.123  1.00 40.54    -0.244 OA
BRANCH  29  30
HETATM   30  S   UAP C   4      38.920  71.544  15.786  1.00 40.49     0.252 S 
HETATM   31  O1S UAP C   4      40.265  72.116  15.633  1.00 40.89    -0.572 OA
HETATM   32  O2S UAP C   4      38.034  71.939  14.681  1.00 37.88    -0.572 OA
HETATM   33  O3S UAP C   4      38.960  70.084  15.966  1.00 37.47    -0.572 OA
ENDBRANCH  29  30
ENDBRANCH  24  29
BRANCH  25  34
HETATM   34  O3  UAP C   4      40.267  74.273  17.761  1.00 38.58    -0.393 OA
ATOM     35  H3  UAP C   4      40.842  73.663  18.209  1.00  0.00     0.210 HD
ENDBRANCH  25  34
BRANCH  27  36
HETATM   36  C6  UAP C   4      36.638  77.291  18.909  1.00 37.96     0.203 C 
HETATM   37  O6A UAP C   4      37.336  78.315  18.772  1.00 40.05    -0.646 OA
HETATM   38  O6B UAP C   4      35.478  77.303  19.373  1.00 36.71    -0.646 OA
ENDBRANCH  27  36
ENDBRANCH  22  23
ENDBRANCH  11  22
BRANCH  12  39
HETATM   39  C6  SGN C   3      32.874  73.181  17.536  1.00 42.65     0.227 C 
BRANCH  39  40
HETATM   40  O6  SGN C   3      33.186  74.364  18.304  1.00 51.09    -0.254 OA
BRANCH  40  41
HETATM   41  S2  SGN C   3      33.118  74.215  19.892  1.00 54.80     0.251 S 
HETATM   42  O4S SGN C   3      32.709  72.830  20.188  1.00 54.99    -0.572 OA
HETATM   43  O5S SGN C   3      32.108  75.206  20.370  1.00 53.99    -0.572 OA
HETATM   44  O6S SGN C   3      34.452  74.505  20.401  1.00 55.43    -0.572 OA
ENDBRANCH  40  41
ENDBRANCH  39  40
ENDBRANCH  12  39
ENDBRANCH   7   8
ENDBRANCH   4   7
BRANCH   3  45
HETATM   45  O3  IDS C   2      31.005  74.535  10.968  1.00 39.65    -0.390 OA
ATOM     46  H3  IDS C   2      31.437  75.174  11.522  1.00  0.00     0.210 HD
ENDBRANCH   3  45
BRANCH   5  47
HETATM   47  C6  IDS C   2      31.346  70.821  14.239  1.00 36.10     0.206 C 
HETATM   48  O6A IDS C   2      32.142  69.860  14.330  1.00 32.44    -0.646 OA
HETATM   49  O6B IDS C   2      30.761  71.343  15.218  1.00 33.44    -0.646 OA
ENDBRANCH   5  47
BRANCH   2  50
HETATM   50  O2  IDS C   2      31.010  72.620   8.940  1.00 43.59    -0.244 OA
BRANCH  50  51
HETATM   51  S   IDS C   2      29.736  73.104   8.109  1.00 44.11     0.252 S 
HETATM   52  O1S IDS C   2      29.699  74.604   8.204  1.00 44.48    -0.572 OA
HETATM   53  O2S IDS C   2      28.550  72.478   8.729  1.00 44.29    -0.572 OA
HETATM   54  O3S IDS C   2      29.929  72.655   6.742  1.00 44.74    -0.572 OA
ENDBRANCH  50  51
ENDBRANCH   2  50
BRANCH   1  55
HETATM   55  O4  SGN C   1      30.487  69.864  10.235  1.00 44.73    -0.348 OA
BRANCH  55  56
HETATM   56  C4  SGN C   1      30.951  68.566   9.805  1.00 48.25     0.186 C 
HETATM   57  C3  SGN C   1      30.664  67.525  10.895  1.00 48.43     0.178 C 
HETATM   58  C2  SGN C   1      31.008  66.126  10.388  1.00 48.58     0.181 C 
HETATM   59  C1  SGN C   1      30.315  65.823   9.061  1.00 50.40     0.283 C 
HETATM   60  O5  SGN C   1      30.632  66.834   8.097  1.00 50.82    -0.349 OA
HETATM   61  C5  SGN C   1      30.225  68.159   8.512  1.00 51.58     0.181 C 
BRANCH  57  62
HETATM   62  O3  SGN C   1      31.437  67.809  12.050  1.00 46.09    -0.391 OA
ATOM     63  H3  SGN C   1      30.991  67.470  12.818  1.00  0.00     0.210 HD
ENDBRANCH  57  62
BRANCH  58  64
HETATM   64  N2  SGN C   1      30.637  65.127  11.369  1.00 48.56    -0.289 N 
ATOM     65  H2  SGN C   1      29.677  64.995  11.685  1.00  0.00     0.175 HD
BRANCH  64  66
HETATM   66  S1  SGN C   1      31.898  64.218  11.935  1.00 47.67     0.205 S 
HETATM   67  O1S SGN C   1      32.226  63.238  10.877  1.00 47.59    -0.578 OA
HETATM   68  O2S SGN C   1      31.400  63.578  13.157  1.00 48.55    -0.578 OA
HETATM   69  O3S SGN C   1      33.011  65.156  12.200  1.00 47.08    -0.578 OA
ENDBRANCH  64  66
ENDBRANCH  58  64
BRANCH  59  70
HETATM   70  O1  SGN C   1      28.940  65.798   9.241  1.00 51.36    -0.369 OA
ATOM     71  H1  SGN C   1      28.506  65.679   8.405  1.00  0.00     0.212 HD
ENDBRANCH  59  70
BRANCH  61  72
HETATM   72  C6  SGN C   1      30.527  69.084   7.360  1.00 55.48     0.227 C 
BRANCH  72  73
HETATM   73  O6  SGN C   1      29.294  69.471   6.715  1.00 61.59    -0.254 OA
BRANCH  73  74
HETATM   74  S2  SGN C   1      29.322  69.431   5.122  1.00 65.98     0.251 S 
HETATM   75  O4S SGN C   1      30.613  70.122   4.676  1.00 65.09    -0.572 OA
HETATM   76  O5S SGN C   1      28.142  70.146   4.670  1.00 65.58    -0.572 OA
HETATM   77  O6S SGN C   1      29.289  67.929   4.699  1.00 65.84    -0.572 OA
ENDBRANCH  73  74
ENDBRANCH  72  73
ENDBRANCH  61  72
ENDBRANCH  55  56
ENDBRANCH   1  55
TORSDOF 27
ENDMDL
MODEL 93
REMARK VINA RESULT:      -4.8     11.287     16.589
REMARK  27 active torsions:
REMARK  status: ('A' for Active; 'I' for Inactive)
REMARK    1  A    between atoms: C1_1  and  O1_2 
REMARK    2  A    between atoms: S1_5  and  N2_7 
REMARK    3  A    between atoms: C2_6  and  N2_7 
REMARK    4  A    between atoms: S2_10  and  O6_22 
REMARK    5  A    between atoms: C3_11  and  O3_12 
REMARK    6  A    between atoms: C4_15  and  O4_16 
REMARK    7  A    between atoms: O4_16  and  C1_24 
REMARK    8  A    between atoms: C5_18  and  C6_21 
REMARK    9  A    between atoms: C6_21  and  O6_22 
REMARK   10  A    between atoms: C2_26  and  O2_27 
REMARK   11  A    between atoms: O2_27  and  S_40 
REMARK   12  A    between atoms: C3_29  and  O3_30 
REMARK   13  A    between atoms: C4_33  and  O4_34 
REMARK   14  A    between atoms: O4_34  and  C1_41 
REMARK   15  A    between atoms: C5_35  and  C6_37 
REMARK   16  A    between atoms: S1_43  and  N2_45 
REMARK   17  A    between atoms: C2_44  and  N2_45 
REMARK   18  A    between atoms: S2_48  and  O6_60 
REMARK   19  A    between atoms: C3_49  and  O3_50 
REMARK   20  A    between atoms: C4_53  and  O4_54 
REMARK   21  A    between atoms: O4_54  and  C1_62 
REMARK   22  A    between atoms: C5_56  and  C6_59 
REMARK   23  A    between atoms: C6_59  and  O6_60 
REMARK   24  A    between atoms: C2_64  and  O2_65 
REMARK   25  A    between atoms: O2_65  and  S_77 
REMARK   26  A    between atoms: C3_67  and  O3_68 
REMARK   27  A    between atoms: C5_72  and  C6_74 
ROOT
HETATM    1  C1  IDS C   2      27.423  87.433  13.308  1.00 40.81     0.294 C 
HETATM    2  C2  IDS C   2      27.777  87.123  14.765  1.00 40.20     0.231 C 
HETATM    3  C3  IDS C   2      28.704  85.915  14.858  1.00 39.01     0.185 C 
HETATM    4  C4  IDS C   2      28.041  84.660  14.255  1.00 37.65     0.195 C 
HETATM    5  C5  IDS C   2      26.916  85.074  13.299  1.00 35.99     0.257 C 
HETATM    6  O5  IDS C   2      27.334  86.223  12.524  1.00 39.00    -0.340 OA
ENDROOT
BRANCH   4   7
HETATM    7  O4  IDS C   2      29.031  83.874  13.546  1.00 35.98    -0.348 OA
BRANCH   7   8
HETATM    8  C1  SGN C   3      29.782  82.981  14.324  1.00 35.40     0.287 C 
HETATM    9  C2  SGN C   3      31.015  82.501  13.538  1.00 33.71     0.182 C 
HETATM   10  C3  SGN C   3      30.647  81.516  12.422  1.00 35.79     0.178 C 
HETATM   11  C4  SGN C   3      29.679  80.426  12.914  1.00 36.62     0.186 C 
HETATM   12  C5  SGN C   3      28.519  81.060  13.673  1.00 39.32     0.181 C 
HETATM   13  O5  SGN C   3      29.017  81.869  14.753  1.00 37.58    -0.349 OA
BRANCH   9  14
HETATM   14  N2  SGN C   3      31.686  83.640  12.950  1.00 29.28    -0.289 N 
ATOM     15  H2  SGN C   3      31.160  84.442  12.605  1.00  0.00     0.175 HD
BRANCH  14  16
HETATM   16  S1  SGN C   3      33.334  83.593  12.857  1.00 27.84     0.205 S 
HETATM   17  O1S SGN C   3      33.766  84.872  13.389  1.00 27.65    -0.578 OA
HETATM   18  O2S SGN C   3      33.641  83.440  11.404  1.00 27.72    -0.578 OA
HETATM   19  O3S SGN C   3      33.846  82.440  13.662  1.00 28.50    -0.578 OA
ENDBRANCH  14  16
ENDBRANCH   9  14
BRANCH  10  20
HETATM   20  O3  SGN C   3      31.833  80.919  11.905  1.00 34.89    -0.391 OA
ATOM     21  H3  SGN C   3      31.933  80.047  12.269  1.00  0.00     0.210 HD
ENDBRANCH  10  20
BRANCH  11  22
HETATM   22  O4  SGN C   3      29.150  79.716  11.780  1.00 37.13    -0.348 OA
BRANCH  22  23
HETATM   23  C1  UAP C   4      28.615  80.511  10.779  1.00 39.64     0.294 C 
HETATM   24  C2  UAP C   4      29.174  80.099   9.430  1.00 38.70     0.228 C 
HETATM   25  C3  UAP C   4      28.659  81.037   8.341  1.00 38.51     0.156 C 
HETATM   26  C4  UAP C   4      27.111  81.410   8.488  1.00 38.14     0.077 C 
HETATM   27  C5  UAP C   4      26.524  81.012   9.697  1.00 38.51     0.228 C 
HETATM   28  O5  UAP C   4      27.206  80.316  10.779  1.00 37.46    -0.343 OA
BRANCH  24  29
HETATM   29  O2  UAP C   4      30.634  80.202   9.437  1.00 40.54    -0.244 OA
BRANCH  29  30
HETATM   30  S   UAP C   4      31.551  78.960   9.014  1.00 40.49     0.252 S 
HETATM   31  O1S UAP C   4      32.885  79.198   9.585  1.00 40.89    -0.572 OA
HETATM   32  O2S UAP C   4      31.585  78.939   7.544  1.00 37.88    -0.572 OA
HETATM   33  O3S UAP C   4      30.923  77.750   9.568  1.00 37.47    -0.572 OA
ENDBRANCH  29  30
ENDBRANCH  24  29
BRANCH  25  34
HETATM   34  O3  UAP C   4      28.878  80.438   7.074  1.00 38.58    -0.393 OA
ATOM     35  H3  UAP C   4      29.276  81.077   6.495  1.00  0.00     0.210 HD
ENDBRANCH  25  34
BRANCH  27  36
HETATM   36  C6  UAP C   4      25.083  81.237   9.999  1.00 37.96     0.203 C 
HETATM   37  O6A UAP C   4      24.512  82.204   9.458  1.00 40.05    -0.646 OA
HETATM   38  O6B UAP C   4      24.512  80.448  10.783  1.00 36.71    -0.646 OA
ENDBRANCH  27  36
ENDBRANCH  22  23
ENDBRANCH  11  22
BRANCH  12  39
HETATM   39  C6  SGN C   3      27.557  80.070  14.269  1.00 42.65     0.227 C 
BRANCH  39  40
HETATM   40  O6  SGN C   3      28.368  78.968  14.732  1.00 51.09    -0.254 OA
BRANCH  40  41
HETATM   41  S2  SGN C   3      27.688  77.525  14.693  1.00 54.80     0.251 S 
HETATM   42  O4S SGN C   3      27.512  77.082  16.089  1.00 54.99    -0.572 OA
HETATM   43  O5S SGN C   3      28.623  76.633  13.943  1.00 53.99    -0.572 OA
HETATM   44  O6S SGN C   3      26.411  77.677  14.009  1.00 55.43    -0.572 OA
ENDBRANCH  40  41
ENDBRANCH  39  40
ENDBRANCH  12  39
ENDBRANCH   7   8
ENDBRANCH   4   7
BRANCH   3  45
HETATM   45  O3  IDS C   2      29.038  85.677  16.219  1.00 39.65    -0.390 OA
ATOM     46  H3  IDS C   2      29.524  84.865  16.289  1.00  0.00     0.210 HD
ENDBRANCH   3  45
BRANCH   5  47
HETATM   47  C6  IDS C   2      26.468  83.992  12.325  1.00 36.10     0.206 C 
HETATM   48  O6A IDS C   2      25.849  83.011  12.793  1.00 32.44    -0.646 OA
HETATM   49  O6B IDS C   2      26.726  84.143  11.107  1.00 33.44    -0.646 OA
ENDBRANCH   5  47
BRANCH   2  50
HETATM   50  O2  IDS C   2      28.456  88.267  15.360  1.00 43.59    -0.244 OA
BRANCH  50  51
HETATM   51  S   IDS C   2      29.898  88.693  14.825  1.00 44.11     0.252 S 
HETATM   52  O1S IDS C   2      30.658  89.227  16.006  1.00 44.48    -0.572 OA
HETATM   53  O2S IDS C   2      29.689  89.723  13.786  1.00 44.29    -0.572 OA
HETATM   54  O3S IDS C   2      30.516  87.497  14.281  1.00 44.74    -0.572 OA
ENDBRANCH  50  51
ENDBRANCH   2  50
BRANCH   1  55
HETATM   55  O4  SGN C   1      26.198  88.084  13.258  1.00 44.73    -0.348 OA
BRANCH  55  56
HETATM   56  C4  SGN C   1      25.826  88.716  12.014  1.00 48.25     0.186 C 
HETATM   57  C3  SGN C   1      24.594  88.018  11.425  1.00 48.43     0.178 C 
HETATM   58  C2  SGN C   1      24.101  88.775  10.193  1.00 48.58     0.181 C 
HETATM   59  C1  SGN C   1      23.874  90.255  10.496  1.00 50.40     0.283 C 
HETATM   60  O5  SGN C   1      25.066  90.836  11.039  1.00 50.82    -0.349 OA
HETATM   61  C5  SGN C   1      25.498  90.198  12.264  1.00 51.58     0.181 C 
BRANCH  57  62
HETATM   62  O3  SGN C   1      24.922  86.688  11.057  1.00 46.09    -0.391 OA
ATOM     63  H3  SGN C   1      24.434  86.448  10.277  1.00  0.00     0.210 HD
ENDBRANCH  57  62
BRANCH  58  64
HETATM   64  N2  SGN C   1      22.874  88.187   9.695  1.00 48.56    -0.289 N 
ATOM     65  H2  SGN C   1      22.020  88.140  10.251  1.00  0.00     0.175 HD
BRANCH  64  66
HETATM   66  S1  SGN C   1      22.971  87.598   8.152  1.00 47.67     0.205 S 
HETATM   67  O1S SGN C   1      24.337  87.895   7.668  1.00 47.59    -0.578 OA
HETATM   68  O2S SGN C   1      21.940  88.315   7.395  1.00 48.55    -0.578 OA
HETATM   69  O3S SGN C   1      22.705  86.145   8.237  1.00 47.08    -0.578 OA
ENDBRANCH  64  66
ENDBRANCH  58  64
BRANCH  59  70
HETATM   70  O1  SGN C   1      22.851  90.395  11.423  1.00 51.36    -0.369 OA
ATOM     71  H1  SGN C   1      22.826  89.637  11.994  1.00  0.00     0.212 HD
ENDBRANCH  59  70
BRANCH  61  72
HETATM   72  C6  SGN C   1      26.688  90.981  12.761  1.00 55.48     0.227 C 
BRANCH  72  73
HETATM   73  O6  SGN C   1      26.428  92.394  12.621  1.00 61.59    -0.254 OA
BRANCH  73  74
HETATM   74  S2  SGN C   1      27.164  93.326  13.684  1.00 65.98     0.251 S 
HETATM   75  O4S SGN C   1      28.039  94.305  12.898  1.00 65.09    -0.572 OA
HETATM   76  O5S SGN C   1      27.957  92.448  14.525  1.00 65.58    -0.572 OA
HETATM   77  O6S SGN C   1      26.054  94.062  14.498  1.00 65.84    -0.572 OA
ENDBRANCH  73  74
ENDBRANCH  72  73
ENDBRANCH  61  72
ENDBRANCH  55  56
ENDBRANCH   1  55
TORSDOF 27
ENDMDL
MODEL 94
REMARK VINA RESULT:      -4.8     15.306     21.385
REMARK  27 active torsions:
REMARK  status: ('A' for Active; 'I' for Inactive)
REMARK    1  A    between atoms: C1_1  and  O1_2 
REMARK    2  A    between atoms: S1_5  and  N2_7 
REMARK    3  A    between atoms: C2_6  and  N2_7 
REMARK    4  A    between atoms: S2_10  and  O6_22 
REMARK    5  A    between atoms: C3_11  and  O3_12 
REMARK    6  A    between atoms: C4_15  and  O4_16 
REMARK    7  A    between atoms: O4_16  and  C1_24 
REMARK    8  A    between atoms: C5_18  and  C6_21 
REMARK    9  A    between atoms: C6_21  and  O6_22 
REMARK   10  A    between atoms: C2_26  and  O2_27 
REMARK   11  A    between atoms: O2_27  and  S_40 
REMARK   12  A    between atoms: C3_29  and  O3_30 
REMARK   13  A    between atoms: C4_33  and  O4_34 
REMARK   14  A    between atoms: O4_34  and  C1_41 
REMARK   15  A    between atoms: C5_35  and  C6_37 
REMARK   16  A    between atoms: S1_43  and  N2_45 
REMARK   17  A    between atoms: C2_44  and  N2_45 
REMARK   18  A    between atoms: S2_48  and  O6_60 
REMARK   19  A    between atoms: C3_49  and  O3_50 
REMARK   20  A    between atoms: C4_53  and  O4_54 
REMARK   21  A    between atoms: O4_54  and  C1_62 
REMARK   22  A    between atoms: C5_56  and  C6_59 
REMARK   23  A    between atoms: C6_59  and  O6_60 
REMARK   24  A    between atoms: C2_64  and  O2_65 
REMARK   25  A    between atoms: O2_65  and  S_77 
REMARK   26  A    between atoms: C3_67  and  O3_68 
REMARK   27  A    between atoms: C5_72  and  C6_74 
ROOT
HETATM    1  C1  IDS C   2      22.091  85.082  11.145  1.00 40.81     0.294 C 
HETATM    2  C2  IDS C   2      21.543  86.301  11.892  1.00 40.20     0.231 C 
HETATM    3  C3  IDS C   2      22.374  87.546  11.593  1.00 39.01     0.185 C 
HETATM    4  C4  IDS C   2      23.842  87.348  12.024  1.00 37.65     0.195 C 
HETATM    5  C5  IDS C   2      24.156  85.850  12.128  1.00 35.99     0.257 C 
HETATM    6  O5  IDS C   2      23.530  85.143  11.031  1.00 39.00    -0.340 OA
ENDROOT
BRANCH   4   7
HETATM    7  O4  IDS C   2      24.725  87.975  11.061  1.00 35.98    -0.348 OA
BRANCH   7   8
HETATM    8  C1  SGN C   3      24.743  89.377  11.062  1.00 35.40     0.287 C 
HETATM    9  C2  SGN C   3      25.364  89.900   9.755  1.00 33.71     0.182 C 
HETATM   10  C3  SGN C   3      26.882  89.691   9.706  1.00 35.79     0.178 C 
HETATM   11  C4  SGN C   3      27.565  90.129  11.013  1.00 36.62     0.186 C 
HETATM   12  C5  SGN C   3      26.834  89.533  12.210  1.00 39.32     0.181 C 
HETATM   13  O5  SGN C   3      25.444  89.902  12.176  1.00 37.58    -0.349 OA
BRANCH   9  14
HETATM   14  N2  SGN C   3      24.764  89.218   8.629  1.00 29.28    -0.289 N 
ATOM     15  H2  SGN C   3      25.162  88.353   8.263  1.00  0.00     0.175 HD
BRANCH  14  16
HETATM   16  S1  SGN C   3      23.414  89.890   7.957  1.00 27.84     0.205 S 
HETATM   17  O1S SGN C   3      23.328  89.294   6.637  1.00 27.65    -0.578 OA
HETATM   18  O2S SGN C   3      23.687  91.357   7.911  1.00 27.72    -0.578 OA
HETATM   19  O3S SGN C   3      22.223  89.569   8.805  1.00 28.50    -0.578 OA
ENDBRANCH  14  16
ENDBRANCH   9  14
BRANCH  10  20
HETATM   20  O3  SGN C   3      27.426  90.414   8.604  1.00 34.89    -0.391 OA
ATOM     21  H3  SGN C   3      27.103  91.307   8.621  1.00  0.00     0.210 HD
ENDBRANCH  10  20
BRANCH  11  22
HETATM   22  O4  SGN C   3      28.922  89.650  11.021  1.00 37.13    -0.348 OA
BRANCH  22  23
HETATM   23  C1  UAP C   4      29.895  90.629  11.152  1.00 39.64     0.294 C 
HETATM   24  C2  UAP C   4      30.861  90.564   9.983  1.00 38.70     0.228 C 
HETATM   25  C3  UAP C   4      31.987  91.576  10.178  1.00 38.51     0.156 C 
HETATM   26  C4  UAP C   4      31.495  92.992  10.735  1.00 38.14     0.077 C 
HETATM   27  C5  UAP C   4      30.161  93.021  11.168  1.00 38.51     0.228 C 
HETATM   28  O5  UAP C   4      29.242  91.892  11.147  1.00 37.46    -0.343 OA
BRANCH  24  29
HETATM   29  O2  UAP C   4      31.476  89.238   9.912  1.00 40.54    -0.244 OA
BRANCH  29  30
HETATM   30  S   UAP C   4      31.425  88.376   8.563  1.00 40.49     0.252 S 
HETATM   31  O1S UAP C   4      32.525  87.402   8.636  1.00 40.89    -0.572 OA
HETATM   32  O2S UAP C   4      31.608  89.319   7.450  1.00 37.88    -0.572 OA
HETATM   33  O3S UAP C   4      30.110  87.719   8.520  1.00 37.47    -0.572 OA
ENDBRANCH  29  30
ENDBRANCH  24  29
BRANCH  25  34
HETATM   34  O3  UAP C   4      32.656  91.766   8.941  1.00 38.58    -0.393 OA
ATOM     35  H3  UAP C   4      32.041  92.118   8.308  1.00  0.00     0.210 HD
ENDBRANCH  25  34
BRANCH  27  36
HETATM   36  C6  UAP C   4      29.513  94.260  11.681  1.00 37.96     0.203 C 
HETATM   37  O6A UAP C   4      28.292  94.412  11.481  1.00 40.05    -0.646 OA
HETATM   38  O6B UAP C   4      30.223  95.092  12.286  1.00 36.71    -0.646 OA
ENDBRANCH  27  36
ENDBRANCH  22  23
ENDBRANCH  11  22
BRANCH  12  39
HETATM   39  C6  SGN C   3      27.375  89.969  13.543  1.00 42.65     0.227 C 
BRANCH  39  40
HETATM   40  O6  SGN C   3      27.391  88.783  14.366  1.00 51.09    -0.254 OA
BRANCH  40  41
HETATM   41  S2  SGN C   3      28.774  88.438  15.084  1.00 54.80     0.251 S 
HETATM   42  O4S SGN C   3      29.840  89.145  14.352  1.00 54.99    -0.572 OA
HETATM   43  O5S SGN C   3      28.937  86.956  15.007  1.00 53.99    -0.572 OA
HETATM   44  O6S SGN C   3      28.663  88.905  16.460  1.00 55.43    -0.572 OA
ENDBRANCH  40  41
ENDBRANCH  39  40
ENDBRANCH  12  39
ENDBRANCH   7   8
ENDBRANCH   4   7
BRANCH   3  45
HETATM   45  O3  IDS C   2      21.818  88.662  12.275  1.00 39.65    -0.390 OA
ATOM     46  H3  IDS C   2      21.476  89.282  11.641  1.00  0.00     0.210 HD
ENDBRANCH   3  45
BRANCH   5  47
HETATM   47  C6  IDS C   2      25.638  85.502  12.121  1.00 36.10     0.206 C 
HETATM   48  O6A IDS C   2      26.316  85.831  13.120  1.00 32.44    -0.646 OA
HETATM   49  O6B IDS C   2      26.103  84.893  11.128  1.00 33.44    -0.646 OA
ENDBRANCH   5  47
BRANCH   2  50
HETATM   50  O2  IDS C   2      20.171  86.558  11.474  1.00 43.59    -0.244 OA
BRANCH  50  51
HETATM   51  S   IDS C   2      19.005  86.577  12.563  1.00 44.11     0.252 S 
HETATM   52  O1S IDS C   2      19.432  85.656  13.672  1.00 44.48    -0.572 OA
HETATM   53  O2S IDS C   2      17.776  86.106  11.891  1.00 44.29    -0.572 OA
HETATM   54  O3S IDS C   2      18.877  87.949  13.020  1.00 44.74    -0.572 OA
ENDBRANCH  50  51
ENDBRANCH   2  50
BRANCH   1  55
HETATM   55  O4  SGN C   1      21.750  83.926  11.833  1.00 44.73    -0.348 OA
BRANCH  55  56
HETATM   56  C4  SGN C   1      21.633  82.704  11.073  1.00 48.25     0.186 C 
HETATM   57  C3  SGN C   1      22.416  81.583  11.768  1.00 48.43     0.178 C 
HETATM   58  C2  SGN C   1      22.171  80.253  11.057  1.00 48.58     0.181 C 
HETATM   59  C1  SGN C   1      20.679  79.957  10.919  1.00 50.40     0.283 C 
HETATM   60  O5  SGN C   1      20.019  81.045  10.261  1.00 50.82    -0.349 OA
HETATM   61  C5  SGN C   1      20.153  82.299  10.969  1.00 51.58     0.181 C 
BRANCH  57  62
HETATM   62  O3  SGN C   1      23.804  81.878  11.746  1.00 46.09    -0.391 OA
ATOM     63  H3  SGN C   1      24.109  81.883  10.846  1.00  0.00     0.210 HD
ENDBRANCH  57  62
BRANCH  58  64
HETATM   64  N2  SGN C   1      22.818  79.171  11.771  1.00 48.56    -0.289 N 
ATOM     65  H2  SGN C   1      22.531  78.879  12.705  1.00  0.00     0.175 HD
BRANCH  64  66
HETATM   66  S1  SGN C   1      24.059  78.450  10.949  1.00 47.67     0.205 S 
HETATM   67  O1S SGN C   1      24.612  77.409  11.842  1.00 47.59    -0.578 OA
HETATM   68  O2S SGN C   1      25.021  79.523  10.675  1.00 48.55    -0.578 OA
HETATM   69  O3S SGN C   1      23.476  77.882   9.714  1.00 47.08    -0.578 OA
ENDBRANCH  64  66
ENDBRANCH  58  64
BRANCH  59  70
HETATM   70  O1  SGN C   1      20.113  79.789  12.175  1.00 51.36    -0.369 OA
ATOM     71  H1  SGN C   1      20.793  79.620  12.816  1.00  0.00     0.212 HD
ENDBRANCH  59  70
BRANCH  61  72
HETATM   72  C6  SGN C   1      19.325  83.310  10.216  1.00 55.48     0.227 C 
BRANCH  72  73
HETATM   73  O6  SGN C   1      19.158  82.876   8.849  1.00 61.59    -0.254 OA
BRANCH  73  74
HETATM   74  S2  SGN C   1      19.909  83.765   7.760  1.00 65.98     0.251 S 
HETATM   75  O4S SGN C   1      21.305  83.165   7.573  1.00 65.09    -0.572 OA
HETATM   76  O5S SGN C   1      19.968  85.112   8.295  1.00 65.58    -0.572 OA
HETATM   77  O6S SGN C   1      19.065  83.696   6.448  1.00 65.84    -0.572 OA
ENDBRANCH  73  74
ENDBRANCH  72  73
ENDBRANCH  61  72
ENDBRANCH  55  56
ENDBRANCH   1  55
TORSDOF 27
ENDMDL
MODEL 95
REMARK VINA RESULT:      -4.7     16.313     21.469
REMARK  27 active torsions:
REMARK  status: ('A' for Active; 'I' for Inactive)
REMARK    1  A    between atoms: C1_1  and  O1_2 
REMARK    2  A    between atoms: S1_5  and  N2_7 
REMARK    3  A    between atoms: C2_6  and  N2_7 
REMARK    4  A    between atoms: S2_10  and  O6_22 
REMARK    5  A    between atoms: C3_11  and  O3_12 
REMARK    6  A    between atoms: C4_15  and  O4_16 
REMARK    7  A    between atoms: O4_16  and  C1_24 
REMARK    8  A    between atoms: C5_18  and  C6_21 
REMARK    9  A    between atoms: C6_21  and  O6_22 
REMARK   10  A    between atoms: C2_26  and  O2_27 
REMARK   11  A    between atoms: O2_27  and  S_40 
REMARK   12  A    between atoms: C3_29  and  O3_30 
REMARK   13  A    between atoms: C4_33  and  O4_34 
REMARK   14  A    between atoms: O4_34  and  C1_41 
REMARK   15  A    between atoms: C5_35  and  C6_37 
REMARK   16  A    between atoms: S1_43  and  N2_45 
REMARK   17  A    between atoms: C2_44  and  N2_45 
REMARK   18  A    between atoms: S2_48  and  O6_60 
REMARK   19  A    between atoms: C3_49  and  O3_50 
REMARK   20  A    between atoms: C4_53  and  O4_54 
REMARK   21  A    between atoms: O4_54  and  C1_62 
REMARK   22  A    between atoms: C5_56  and  C6_59 
REMARK   23  A    between atoms: C6_59  and  O6_60 
REMARK   24  A    between atoms: C2_64  and  O2_65 
REMARK   25  A    between atoms: O2_65  and  S_77 
REMARK   26  A    between atoms: C3_67  and  O3_68 
REMARK   27  A    between atoms: C5_72  and  C6_74 
ROOT
HETATM    1  C1  IDS C   2      18.383  84.112   8.746  1.00 40.81     0.294 C 
HETATM    2  C2  IDS C   2      17.646  83.002   9.499  1.00 40.20     0.231 C 
HETATM    3  C3  IDS C   2      18.469  81.717   9.527  1.00 39.01     0.185 C 
HETATM    4  C4  IDS C   2      18.753  81.211   8.098  1.00 37.65     0.195 C 
HETATM    5  C5  IDS C   2      18.600  82.364   7.097  1.00 35.99     0.257 C 
HETATM    6  O5  IDS C   2      19.165  83.573   7.657  1.00 39.00    -0.340 OA
ENDROOT
BRANCH   4   7
HETATM    7  O4  IDS C   2      20.094  80.667   8.027  1.00 35.98    -0.348 OA
BRANCH   7   8
HETATM    8  C1  SGN C   3      20.219  79.296   8.298  1.00 35.40     0.287 C 
HETATM    9  C2  SGN C   3      21.513  79.028   9.086  1.00 33.71     0.182 C 
HETATM   10  C3  SGN C   3      22.766  79.162   8.214  1.00 35.79     0.178 C 
HETATM   11  C4  SGN C   3      22.613  78.425   6.872  1.00 36.62     0.186 C 
HETATM   12  C5  SGN C   3      21.287  78.794   6.220  1.00 39.32     0.181 C 
HETATM   13  O5  SGN C   3      20.199  78.513   7.118  1.00 37.58    -0.349 OA
BRANCH   9  14
HETATM   14  N2  SGN C   3      21.610  79.961  10.187  1.00 29.28    -0.289 N 
ATOM     15  H2  SGN C   3      21.805  80.949  10.026  1.00  0.00     0.175 HD
BRANCH  14  16
HETATM   16  S1  SGN C   3      21.395  79.370  11.714  1.00 27.84     0.205 S 
HETATM   17  O1S SGN C   3      21.617  77.942  11.587  1.00 27.65    -0.578 OA
HETATM   18  O2S SGN C   3      19.984  79.705  12.069  1.00 27.72    -0.578 OA
HETATM   19  O3S SGN C   3      22.375  80.019  12.642  1.00 28.50    -0.578 OA
ENDBRANCH  14  16
ENDBRANCH   9  14
BRANCH  10  20
HETATM   20  O3  SGN C   3      23.895  78.659   8.923  1.00 34.89    -0.391 OA
ATOM     21  H3  SGN C   3      24.125  77.801   8.585  1.00  0.00     0.210 HD
ENDBRANCH  10  20
BRANCH  11  22
HETATM   22  O4  SGN C   3      23.681  78.820   5.992  1.00 37.13    -0.348 OA
BRANCH  22  23
HETATM   23  C1  UAP C   4      23.866  80.187   5.858  1.00 39.64     0.294 C 
HETATM   24  C2  UAP C   4      25.339  80.530   5.988  1.00 38.70     0.228 C 
HETATM   25  C3  UAP C   4      25.530  82.043   5.939  1.00 38.51     0.156 C 
HETATM   26  C4  UAP C   4      24.630  82.774   4.837  1.00 38.14     0.077 C 
HETATM   27  C5  UAP C   4      23.652  81.961   4.246  1.00 38.51     0.228 C 
HETATM   28  O5  UAP C   4      23.414  80.560   4.564  1.00 37.46    -0.343 OA
BRANCH  24  29
HETATM   29  O2  UAP C   4      25.851  80.069   7.280  1.00 40.54    -0.244 OA
BRANCH  29  30
HETATM   30  S   UAP C   4      27.129  79.109   7.365  1.00 40.49     0.252 S 
HETATM   31  O1S UAP C   4      27.545  79.073   8.775  1.00 40.89    -0.572 OA
HETATM   32  O2S UAP C   4      28.166  79.704   6.509  1.00 37.88    -0.572 OA
HETATM   33  O3S UAP C   4      26.708  77.784   6.882  1.00 37.47    -0.572 OA
ENDBRANCH  29  30
ENDBRANCH  24  29
BRANCH  25  34
HETATM   34  O3  UAP C   4      26.898  82.328   5.690  1.00 38.58    -0.393 OA
ATOM     35  H3  UAP C   4      27.399  81.525   5.765  1.00  0.00     0.210 HD
ENDBRANCH  25  34
BRANCH  27  36
HETATM   36  C6  UAP C   4      22.745  82.453   3.172  1.00 37.96     0.203 C 
HETATM   37  O6A UAP C   4      22.913  83.613   2.746  1.00 40.05    -0.646 OA
HETATM   38  O6B UAP C   4      21.857  81.683   2.749  1.00 36.71    -0.646 OA
ENDBRANCH  27  36
ENDBRANCH  22  23
ENDBRANCH  11  22
BRANCH  12  39
HETATM   39  C6  SGN C   3      21.004  78.060   4.939  1.00 42.65     0.227 C 
BRANCH  39  40
HETATM   40  O6  SGN C   3      19.621  77.651   5.020  1.00 51.09    -0.254 OA
BRANCH  40  41
HETATM   41  S2  SGN C   3      19.127  76.603   3.923  1.00 54.80     0.251 S 
HETATM   42  O4S SGN C   3      18.390  75.539   4.629  1.00 54.99    -0.572 OA
HETATM   43  O5S SGN C   3      20.353  76.077   3.252  1.00 53.99    -0.572 OA
HETATM   44  O6S SGN C   3      18.268  77.332   2.999  1.00 55.43    -0.572 OA
ENDBRANCH  40  41
ENDBRANCH  39  40
ENDBRANCH  12  39
ENDBRANCH   7   8
ENDBRANCH   4   7
BRANCH   3  45
HETATM   45  O3  IDS C   2      17.770  80.721  10.261  1.00 39.65    -0.390 OA
ATOM     46  H3  IDS C   2      18.049  80.742  11.168  1.00  0.00     0.210 HD
ENDBRANCH   3  45
BRANCH   5  47
HETATM   47  C6  IDS C   2      19.252  82.129   5.741  1.00 36.10     0.206 C 
HETATM   48  O6A IDS C   2      20.142  82.929   5.379  1.00 32.44    -0.646 OA
HETATM   49  O6B IDS C   2      18.878  81.141   5.064  1.00 33.44    -0.646 OA
ENDBRANCH   5  47
BRANCH   2  50
HETATM   50  O2  IDS C   2      17.403  83.418  10.874  1.00 43.59    -0.244 OA
BRANCH  50  51
HETATM   51  S   IDS C   2      15.905  83.518  11.415  1.00 44.11     0.252 S 
HETATM   52  O1S IDS C   2      15.222  84.586  10.608  1.00 44.48    -0.572 OA
HETATM   53  O2S IDS C   2      15.985  83.870  12.849  1.00 44.29    -0.572 OA
HETATM   54  O3S IDS C   2      15.296  82.216  11.214  1.00 44.74    -0.572 OA
ENDBRANCH  50  51
ENDBRANCH   2  50
BRANCH   1  55
HETATM   55  O4  SGN C   1      17.462  85.010   8.227  1.00 44.73    -0.348 OA
BRANCH  55  56
HETATM   56  C4  SGN C   1      17.947  86.310   7.824  1.00 48.25     0.186 C 
HETATM   57  C3  SGN C   1      17.750  86.492   6.314  1.00 48.43     0.178 C 
HETATM   58  C2  SGN C   1      18.115  87.919   5.906  1.00 48.58     0.181 C 
HETATM   59  C1  SGN C   1      17.368  88.952   6.747  1.00 50.40     0.283 C 
HETATM   60  O5  SGN C   1      17.602  88.718   8.141  1.00 50.82    -0.349 OA
HETATM   61  C5  SGN C   1      17.172  87.407   8.573  1.00 51.58     0.181 C 
BRANCH  57  62
HETATM   62  O3  SGN C   1      18.570  85.577   5.605  1.00 46.09    -0.391 OA
ATOM     63  H3  SGN C   1      18.994  86.029   4.885  1.00  0.00     0.210 HD
ENDBRANCH  57  62
BRANCH  58  64
HETATM   64  N2  SGN C   1      17.828  88.133   4.503  1.00 48.56    -0.289 N 
ATOM     65  H2  SGN C   1      16.881  88.112   4.125  1.00  0.00     0.175 HD
BRANCH  64  66
HETATM   66  S1  SGN C   1      19.160  88.414   3.563  1.00 47.67     0.205 S 
HETATM   67  O1S SGN C   1      18.688  89.140   2.363  1.00 47.59    -0.578 OA
HETATM   68  O2S SGN C   1      19.697  87.089   3.241  1.00 48.55    -0.578 OA
HETATM   69  O3S SGN C   1      20.092  89.221   4.381  1.00 47.08    -0.578 OA
ENDBRANCH  64  66
ENDBRANCH  58  64
BRANCH  59  70
HETATM   70  O1  SGN C   1      16.005  88.860   6.505  1.00 51.36    -0.369 OA
ATOM     71  H1  SGN C   1      15.853  88.619   5.599  1.00  0.00     0.212 HD
ENDBRANCH  59  70
BRANCH  61  72
HETATM   72  C6  SGN C   1      17.385  87.353  10.066  1.00 55.48     0.227 C 
BRANCH  72  73
HETATM   73  O6  SGN C   1      16.186  87.793  10.741  1.00 61.59    -0.254 OA
BRANCH  73  74
HETATM   74  S2  SGN C   1      16.239  87.715  12.331  1.00 65.98     0.251 S 
HETATM   75  O4S SGN C   1      17.428  86.826  12.701  1.00 65.09    -0.572 OA
HETATM   76  O5S SGN C   1      14.978  87.138  12.759  1.00 65.58    -0.572 OA
HETATM   77  O6S SGN C   1      16.418  89.174  12.857  1.00 65.84    -0.572 OA
ENDBRANCH  73  74
ENDBRANCH  72  73
ENDBRANCH  61  72
ENDBRANCH  55  56
ENDBRANCH   1  55
TORSDOF 27
ENDMDL
MODEL 96
REMARK VINA RESULT:      -4.7      7.070     12.305
REMARK  27 active torsions:
REMARK  status: ('A' for Active; 'I' for Inactive)
REMARK    1  A    between atoms: C1_1  and  O1_2 
REMARK    2  A    between atoms: S1_5  and  N2_7 
REMARK    3  A    between atoms: C2_6  and  N2_7 
REMARK    4  A    between atoms: S2_10  and  O6_22 
REMARK    5  A    between atoms: C3_11  and  O3_12 
REMARK    6  A    between atoms: C4_15  and  O4_16 
REMARK    7  A    between atoms: O4_16  and  C1_24 
REMARK    8  A    between atoms: C5_18  and  C6_21 
REMARK    9  A    between atoms: C6_21  and  O6_22 
REMARK   10  A    between atoms: C2_26  and  O2_27 
REMARK   11  A    between atoms: O2_27  and  S_40 
REMARK   12  A    between atoms: C3_29  and  O3_30 
REMARK   13  A    between atoms: C4_33  and  O4_34 
REMARK   14  A    between atoms: O4_34  and  C1_41 
REMARK   15  A    between atoms: C5_35  and  C6_37 
REMARK   16  A    between atoms: S1_43  and  N2_45 
REMARK   17  A    between atoms: C2_44  and  N2_45 
REMARK   18  A    between atoms: S2_48  and  O6_60 
REMARK   19  A    between atoms: C3_49  and  O3_50 
REMARK   20  A    between atoms: C4_53  and  O4_54 
REMARK   21  A    between atoms: O4_54  and  C1_62 
REMARK   22  A    between atoms: C5_56  and  C6_59 
REMARK   23  A    between atoms: C6_59  and  O6_60 
REMARK   24  A    between atoms: C2_64  and  O2_65 
REMARK   25  A    between atoms: O2_65  and  S_77 
REMARK   26  A    between atoms: C3_67  and  O3_68 
REMARK   27  A    between atoms: C5_72  and  C6_74 
ROOT
HETATM    1  C1  IDS C   2      32.979  73.138   8.444  1.00 40.81     0.294 C 
HETATM    2  C2  IDS C   2      34.442  73.295   8.021  1.00 40.20     0.231 C 
HETATM    3  C3  IDS C   2      35.254  73.998   9.106  1.00 39.01     0.185 C 
HETATM    4  C4  IDS C   2      34.692  75.405   9.392  1.00 37.65     0.195 C 
HETATM    5  C5  IDS C   2      33.234  75.490   8.921  1.00 35.99     0.257 C 
HETATM    6  O5  IDS C   2      32.545  74.259   9.246  1.00 39.00    -0.340 OA
ENDROOT
BRANCH   4   7
HETATM    7  O4  IDS C   2      34.772  75.686  10.812  1.00 35.98    -0.348 OA
BRANCH   7   8
HETATM    8  C1  SGN C   3      35.693  76.672  11.194  1.00 35.40     0.287 C 
HETATM    9  C2  SGN C   3      36.434  76.238  12.471  1.00 33.71     0.182 C 
HETATM   10  C3  SGN C   3      35.544  76.318  13.716  1.00 35.79     0.178 C 
HETATM   11  C4  SGN C   3      34.774  77.647  13.788  1.00 36.62     0.186 C 
HETATM   12  C5  SGN C   3      34.101  77.935  12.452  1.00 39.32     0.181 C 
HETATM   13  O5  SGN C   3      35.077  77.932  11.395  1.00 37.58    -0.349 OA
BRANCH   9  14
HETATM   14  N2  SGN C   3      36.901  74.878  12.319  1.00 29.28    -0.289 N 
ATOM     15  H2  SGN C   3      36.259  74.088  12.386  1.00  0.00     0.175 HD
BRANCH  14  16
HETATM   16  S1  SGN C   3      38.512  74.648  12.033  1.00 27.84     0.205 S 
HETATM   17  O1S SGN C   3      39.168  75.711  12.771  1.00 27.65    -0.578 OA
HETATM   18  O2S SGN C   3      38.672  74.787  10.555  1.00 27.72    -0.578 OA
HETATM   19  O3S SGN C   3      38.914  73.288  12.514  1.00 28.50    -0.578 OA
ENDBRANCH  14  16
ENDBRANCH   9  14
BRANCH  10  20
HETATM   20  O3  SGN C   3      36.346  76.153  14.884  1.00 34.89    -0.391 OA
ATOM     21  H3  SGN C   3      35.805  75.830  15.596  1.00  0.00     0.210 HD
ENDBRANCH  10  20
BRANCH  11  22
HETATM   22  O4  SGN C   3      33.757  77.550  14.801  1.00 37.13    -0.348 OA
BRANCH  22  23
HETATM   23  C1  UAP C   4      33.197  76.292  14.962  1.00 39.64     0.294 C 
HETATM   24  C2  UAP C   4      33.126  75.936  16.436  1.00 38.70     0.228 C 
HETATM   25  C3  UAP C   4      32.601  74.513  16.606  1.00 38.51     0.156 C 
HETATM   26  C4  UAP C   4      31.384  74.151  15.634  1.00 38.14     0.077 C 
HETATM   27  C5  UAP C   4      31.133  75.099  14.631  1.00 38.51     0.228 C 
HETATM   28  O5  UAP C   4      31.880  76.332  14.429  1.00 37.46    -0.343 OA
BRANCH  24  29
HETATM   29  O2  UAP C   4      34.463  75.980  17.029  1.00 40.54    -0.244 OA
BRANCH  29  30
HETATM   30  S   UAP C   4      34.847  77.092  18.116  1.00 40.49     0.252 S 
HETATM   31  O1S UAP C   4      34.970  76.403  19.409  1.00 40.89    -0.572 OA
HETATM   32  O2S UAP C   4      33.752  78.072  18.125  1.00 37.88    -0.572 OA
HETATM   33  O3S UAP C   4      36.121  77.692  17.689  1.00 37.47    -0.572 OA
ENDBRANCH  29  30
ENDBRANCH  24  29
BRANCH  25  34
HETATM   34  O3  UAP C   4      32.195  74.329  17.953  1.00 38.58    -0.393 OA
ATOM     35  H3  UAP C   4      32.928  74.521  18.526  1.00  0.00     0.210 HD
ENDBRANCH  25  34
BRANCH  27  36
HETATM   36  C6  UAP C   4      30.016  74.956  13.656  1.00 37.96     0.203 C 
HETATM   37  O6A UAP C   4      30.033  73.979  12.881  1.00 40.05    -0.646 OA
HETATM   38  O6B UAP C   4      29.115  75.821  13.658  1.00 36.71    -0.646 OA
ENDBRANCH  27  36
ENDBRANCH  22  23
ENDBRANCH  11  22
BRANCH  12  39
HETATM   39  C6  SGN C   3      33.388  79.257  12.392  1.00 42.65     0.227 C 
BRANCH  39  40
HETATM   40  O6  SGN C   3      34.288  80.155  11.707  1.00 51.09    -0.254 OA
BRANCH  40  41
HETATM   41  S2  SGN C   3      34.382  81.640  12.283  1.00 54.80     0.251 S 
HETATM   42  O4S SGN C   3      35.709  81.788  12.908  1.00 54.99    -0.572 OA
HETATM   43  O5S SGN C   3      33.281  81.780  13.282  1.00 53.99    -0.572 OA
HETATM   44  O6S SGN C   3      34.213  82.544  11.153  1.00 55.43    -0.572 OA
ENDBRANCH  40  41
ENDBRANCH  39  40
ENDBRANCH  12  39
ENDBRANCH   7   8
ENDBRANCH   4   7
BRANCH   3  45
HETATM   45  O3  IDS C   2      36.611  74.095   8.694  1.00 39.65    -0.390 OA
ATOM     46  H3  IDS C   2      37.043  73.260   8.829  1.00  0.00     0.210 HD
ENDBRANCH   3  45
BRANCH   5  47
HETATM   47  C6  IDS C   2      32.434  76.643   9.511  1.00 36.10     0.206 C 
HETATM   48  O6A IDS C   2      31.583  76.370  10.386  1.00 32.44    -0.646 OA
HETATM   49  O6B IDS C   2      32.675  77.805   9.105  1.00 33.44    -0.646 OA
ENDBRANCH   5  47
BRANCH   2  50
HETATM   50  O2  IDS C   2      35.030  71.981   7.791  1.00 43.59    -0.244 OA
BRANCH  50  51
HETATM   51  S   IDS C   2      35.171  71.431   6.300  1.00 44.11     0.252 S 
HETATM   52  O1S IDS C   2      36.515  70.764   6.209  1.00 44.48    -0.572 OA
HETATM   53  O2S IDS C   2      35.065  72.595   5.396  1.00 44.29    -0.572 OA
HETATM   54  O3S IDS C   2      34.086  70.489   6.094  1.00 44.74    -0.572 OA
ENDBRANCH  50  51
ENDBRANCH   2  50
BRANCH   1  55
HETATM   55  O4  SGN C   1      32.176  73.066   7.314  1.00 44.73    -0.348 OA
BRANCH  55  56
HETATM   56  C4  SGN C   1      30.866  72.476   7.460  1.00 48.25     0.186 C 
HETATM   57  C3  SGN C   1      30.951  71.242   8.367  1.00 48.43     0.178 C 
HETATM   58  C2  SGN C   1      29.550  70.703   8.652  1.00 48.58     0.181 C 
HETATM   59  C1  SGN C   1      28.628  71.794   9.194  1.00 50.40     0.283 C 
HETATM   60  O5  SGN C   1      28.600  72.908   8.294  1.00 50.82    -0.349 OA
HETATM   61  C5  SGN C   1      29.903  73.499   8.085  1.00 51.58     0.181 C 
BRANCH  57  62
HETATM   62  O3  SGN C   1      31.723  70.231   7.738  1.00 46.09    -0.391 OA
ATOM     63  H3  SGN C   1      32.620  70.283   8.048  1.00  0.00     0.210 HD
ENDBRANCH  57  62
BRANCH  58  64
HETATM   64  N2  SGN C   1      29.613  69.606   9.595  1.00 48.56    -0.289 N 
ATOM     65  H2  SGN C   1      29.924  69.725  10.559  1.00  0.00     0.175 HD
BRANCH  64  66
HETATM   66  S1  SGN C   1      29.138  68.144   8.983  1.00 47.67     0.205 S 
HETATM   67  O1S SGN C   1      30.352  67.497   8.439  1.00 47.59    -0.578 OA
HETATM   68  O2S SGN C   1      28.156  68.458   7.940  1.00 48.55    -0.578 OA
HETATM   69  O3S SGN C   1      28.549  67.385  10.107  1.00 47.08    -0.578 OA
ENDBRANCH  64  66
ENDBRANCH  58  64
BRANCH  59  70
HETATM   70  O1  SGN C   1      29.090  72.232  10.427  1.00 51.36    -0.369 OA
ATOM     71  H1  SGN C   1      28.376  72.619  10.920  1.00  0.00     0.212 HD
ENDBRANCH  59  70
BRANCH  61  72
HETATM   72  C6  SGN C   1      29.693  74.710   7.210  1.00 55.48     0.227 C 
BRANCH  72  73
HETATM   73  O6  SGN C   1      29.349  75.846   8.032  1.00 61.59    -0.254 OA
BRANCH  73  74
HETATM   74  S2  SGN C   1      29.198  77.226   7.249  1.00 65.98     0.251 S 
HETATM   75  O4S SGN C   1      30.183  77.191   6.079  1.00 65.09    -0.572 OA
HETATM   76  O5S SGN C   1      29.522  78.276   8.197  1.00 65.58    -0.572 OA
HETATM   77  O6S SGN C   1      27.718  77.319   6.762  1.00 65.84    -0.572 OA
ENDBRANCH  73  74
ENDBRANCH  72  73
ENDBRANCH  61  72
ENDBRANCH  55  56
ENDBRANCH   1  55
TORSDOF 27
ENDMDL
MODEL 97
REMARK VINA RESULT:      -3.6     11.688     17.320
REMARK  27 active torsions:
REMARK  status: ('A' for Active; 'I' for Inactive)
REMARK    1  A    between atoms: C1_1  and  O1_2 
REMARK    2  A    between atoms: S1_5  and  N2_7 
REMARK    3  A    between atoms: C2_6  and  N2_7 
REMARK    4  A    between atoms: S2_10  and  O6_22 
REMARK    5  A    between atoms: C3_11  and  O3_12 
REMARK    6  A    between atoms: C4_15  and  O4_16 
REMARK    7  A    between atoms: O4_16  and  C1_24 
REMARK    8  A    between atoms: C5_18  and  C6_21 
REMARK    9  A    between atoms: C6_21  and  O6_22 
REMARK   10  A    between atoms: C2_26  and  O2_27 
REMARK   11  A    between atoms: O2_27  and  S_40 
REMARK   12  A    between atoms: C3_29  and  O3_30 
REMARK   13  A    between atoms: C4_33  and  O4_34 
REMARK   14  A    between atoms: O4_34  and  C1_41 
REMARK   15  A    between atoms: C5_35  and  C6_37 
REMARK   16  A    between atoms: S1_43  and  N2_45 
REMARK   17  A    between atoms: C2_44  and  N2_45 
REMARK   18  A    between atoms: S2_48  and  O6_60 
REMARK   19  A    between atoms: C3_49  and  O3_50 
REMARK   20  A    between atoms: C4_53  and  O4_54 
REMARK   21  A    between atoms: O4_54  and  C1_62 
REMARK   22  A    between atoms: C5_56  and  C6_59 
REMARK   23  A    between atoms: C6_59  and  O6_60 
REMARK   24  A    between atoms: C2_64  and  O2_65 
REMARK   25  A    between atoms: O2_65  and  S_77 
REMARK   26  A    between atoms: C3_67  and  O3_68 
REMARK   27  A    between atoms: C5_72  and  C6_74 
ROOT
HETATM    1  C1  IDS C   2      25.154  80.554  13.245  1.00 40.81     0.294 C 
HETATM    2  C2  IDS C   2      26.270  79.870  14.038  1.00 40.20     0.231 C 
HETATM    3  C3  IDS C   2      27.511  80.755  14.114  1.00 39.01     0.185 C 
HETATM    4  C4  IDS C   2      28.055  81.066  12.705  1.00 37.65     0.195 C 
HETATM    5  C5  IDS C   2      26.949  80.859  11.662  1.00 35.99     0.257 C 
HETATM    6  O5  IDS C   2      25.693  81.363  12.177  1.00 39.00    -0.340 OA
ENDROOT
BRANCH   4   7
HETATM    7  O4  IDS C   2      28.535  82.433  12.654  1.00 35.98    -0.348 OA
BRANCH   7   8
HETATM    8  C1  SGN C   3      29.922  82.595  12.530  1.00 35.40     0.287 C 
HETATM    9  C2  SGN C   3      30.455  83.486  13.666  1.00 33.71     0.182 C 
HETATM   10  C3  SGN C   3      30.076  84.959  13.477  1.00 35.79     0.178 C 
HETATM   11  C4  SGN C   3      30.343  85.443  12.042  1.00 36.62     0.186 C 
HETATM   12  C5  SGN C   3      29.758  84.456  11.040  1.00 39.32     0.181 C 
HETATM   13  O5  SGN C   3      30.288  83.139  11.274  1.00 37.58    -0.349 OA
BRANCH   9  14
HETATM   14  N2  SGN C   3      29.924  83.026  14.930  1.00 29.28    -0.289 N 
ATOM     15  H2  SGN C   3      28.943  83.167  15.172  1.00  0.00     0.175 HD
BRANCH  14  16
HETATM   16  S1  SGN C   3      30.961  82.267  15.967  1.00 27.84     0.205 S 
HETATM   17  O1S SGN C   3      31.024  80.900  15.483  1.00 27.65    -0.578 OA
HETATM   18  O2S SGN C   3      30.321  82.374  17.311  1.00 27.72    -0.578 OA
HETATM   19  O3S SGN C   3      32.294  82.947  15.925  1.00 28.50    -0.578 OA
ENDBRANCH  14  16
ENDBRANCH   9  14
BRANCH  10  20
HETATM   20  O3  SGN C   3      30.802  85.760  14.407  1.00 34.89    -0.391 OA
ATOM     21  H3  SGN C   3      31.686  85.896  14.084  1.00  0.00     0.210 HD
ENDBRANCH  10  20
BRANCH  11  22
HETATM   22  O4  SGN C   3      29.712  86.721  11.848  1.00 37.13    -0.348 OA
BRANCH  22  23
HETATM   23  C1  UAP C   4      28.330  86.689  11.737  1.00 39.64     0.294 C 
HETATM   24  C2  UAP C   4      27.708  87.715  12.667  1.00 38.70     0.228 C 
HETATM   25  C3  UAP C   4      26.186  87.612  12.616  1.00 38.51     0.156 C 
HETATM   26  C4  UAP C   4      25.600  87.405  11.142  1.00 38.14     0.077 C 
HETATM   27  C5  UAP C   4      26.563  87.127  10.162  1.00 38.51     0.228 C 
HETATM   28  O5  UAP C   4      27.997  87.016  10.394  1.00 37.46    -0.343 OA
BRANCH  24  29
HETATM   29  O2  UAP C   4      28.115  87.454  14.048  1.00 40.54    -0.244 OA
BRANCH  29  30
HETATM   30  S   UAP C   4      28.733  88.616  14.960  1.00 40.49     0.252 S 
HETATM   31  O1S UAP C   4      28.172  89.885  14.473  1.00 40.89    -0.572 OA
HETATM   32  O2S UAP C   4      30.191  88.564  14.784  1.00 37.88    -0.572 OA
HETATM   33  O3S UAP C   4      28.333  88.335  16.348  1.00 37.47    -0.572 OA
ENDBRANCH  29  30
ENDBRANCH  24  29
BRANCH  25  34
HETATM   34  O3  UAP C   4      25.625  88.785  13.183  1.00 38.58    -0.393 OA
ATOM     35  H3  UAP C   4      25.866  88.831  14.100  1.00  0.00     0.210 HD
ENDBRANCH  25  34
BRANCH  27  36
HETATM   36  C6  UAP C   4      26.214  86.944   8.726  1.00 37.96     0.203 C 
HETATM   37  O6A UAP C   4      25.286  86.161   8.441  1.00 40.05    -0.646 OA
HETATM   38  O6B UAP C   4      26.867  87.581   7.872  1.00 36.71    -0.646 OA
ENDBRANCH  27  36
ENDBRANCH  22  23
ENDBRANCH  11  22
BRANCH  12  39
HETATM   39  C6  SGN C   3      30.039  84.796   9.602  1.00 42.65     0.227 C 
BRANCH  39  40
HETATM   40  O6  SGN C   3      31.415  85.234   9.567  1.00 51.09    -0.254 OA
BRANCH  40  41
HETATM   41  S2  SGN C   3      31.707  86.584   8.766  1.00 54.80     0.251 S 
HETATM   42  O4S SGN C   3      32.688  86.268   7.712  1.00 54.99    -0.572 OA
HETATM   43  O5S SGN C   3      32.253  87.558   9.757  1.00 53.99    -0.572 OA
HETATM   44  O6S SGN C   3      30.437  87.027   8.206  1.00 55.43    -0.572 OA
ENDBRANCH  40  41
ENDBRANCH  39  40
ENDBRANCH  12  39
ENDBRANCH   7   8
ENDBRANCH   4   7
BRANCH   3  45
HETATM   45  O3  IDS C   2      28.511  80.104  14.884  1.00 39.65    -0.390 OA
ATOM     46  H3  IDS C   2      28.621  79.214  14.573  1.00  0.00     0.210 HD
ENDBRANCH   3  45
BRANCH   5  47
HETATM   47  C6  IDS C   2      27.202  81.524  10.316  1.00 36.10     0.206 C 
HETATM   48  O6A IDS C   2      28.157  81.099   9.629  1.00 32.44    -0.646 OA
HETATM   49  O6B IDS C   2      26.436  82.450   9.955  1.00 33.44    -0.646 OA
ENDBRANCH   5  47
BRANCH   2  50
HETATM   50  O2  IDS C   2      25.815  79.605  15.397  1.00 43.59    -0.244 OA
BRANCH  50  51
HETATM   51  S   IDS C   2      25.941  78.131  15.997  1.00 44.11     0.252 S 
HETATM   52  O1S IDS C   2      25.901  77.183  14.833  1.00 44.48    -0.572 OA
HETATM   53  O2S IDS C   2      24.798  77.937  16.914  1.00 44.29    -0.572 OA
HETATM   54  O3S IDS C   2      27.210  78.070  16.700  1.00 44.74    -0.572 OA
ENDBRANCH  50  51
ENDBRANCH   2  50
BRANCH   1  55
HETATM   55  O4  SGN C   1      24.321  79.591  12.692  1.00 44.73    -0.348 OA
BRANCH  55  56
HETATM   56  C4  SGN C   1      23.528  79.969  11.546  1.00 48.25     0.186 C 
HETATM   57  C3  SGN C   1      23.498  78.818  10.533  1.00 48.43     0.178 C 
HETATM   58  C2  SGN C   1      22.537  79.148   9.392  1.00 48.58     0.181 C 
HETATM   59  C1  SGN C   1      21.155  79.532   9.915  1.00 50.40     0.283 C 
HETATM   60  O5  SGN C   1      21.265  80.612  10.851  1.00 50.82    -0.349 OA
HETATM   61  C5  SGN C   1      22.091  80.288  11.993  1.00 51.58     0.181 C 
BRANCH  57  62
HETATM   62  O3  SGN C   1      24.798  78.605  10.005  1.00 46.09    -0.391 OA
ATOM     63  H3  SGN C   1      25.432  79.081  10.528  1.00  0.00     0.210 HD
ENDBRANCH  57  62
BRANCH  58  64
HETATM   64  N2  SGN C   1      22.419  78.022   8.488  1.00 48.56    -0.289 N 
ATOM     65  H2  SGN C   1      22.382  77.056   8.814  1.00  0.00     0.175 HD
BRANCH  64  66
HETATM   66  S1  SGN C   1      22.349  78.429   6.887  1.00 47.67     0.205 S 
HETATM   67  O1S SGN C   1      22.977  79.763   6.760  1.00 47.59    -0.578 OA
HETATM   68  O2S SGN C   1      20.922  78.448   6.551  1.00 48.55    -0.578 OA
HETATM   69  O3S SGN C   1      23.092  77.383   6.151  1.00 47.08    -0.578 OA
ENDBRANCH  64  66
ENDBRANCH  58  64
BRANCH  59  70
HETATM   70  O1  SGN C   1      20.574  78.448  10.556  1.00 51.36    -0.369 OA
ATOM     71  H1  SGN C   1      19.916  78.055   9.994  1.00  0.00     0.212 HD
ENDBRANCH  59  70
BRANCH  61  72
HETATM   72  C6  SGN C   1      22.022  81.471  12.926  1.00 55.48     0.227 C 
BRANCH  72  73
HETATM   73  O6  SGN C   1      20.701  82.053  12.870  1.00 61.59    -0.254 OA
BRANCH  73  74
HETATM   74  S2  SGN C   1      20.656  83.641  12.993  1.00 65.98     0.251 S 
HETATM   75  O4S SGN C   1      22.069  84.107  13.353  1.00 65.09    -0.572 OA
HETATM   76  O5S SGN C   1      19.703  83.947  14.044  1.00 65.58    -0.572 OA
HETATM   77  O6S SGN C   1      20.194  84.197  11.609  1.00 65.84    -0.572 OA
ENDBRANCH  73  74
ENDBRANCH  72  73
ENDBRANCH  61  72
ENDBRANCH  55  56
ENDBRANCH   1  55
TORSDOF 27
ENDMDL
MODEL 98
REMARK VINA RESULT:      -3.5      5.707      9.798
REMARK  27 active torsions:
REMARK  status: ('A' for Active; 'I' for Inactive)
REMARK    1  A    between atoms: C1_1  and  O1_2 
REMARK    2  A    between atoms: S1_5  and  N2_7 
REMARK    3  A    between atoms: C2_6  and  N2_7 
REMARK    4  A    between atoms: S2_10  and  O6_22 
REMARK    5  A    between atoms: C3_11  and  O3_12 
REMARK    6  A    between atoms: C4_15  and  O4_16 
REMARK    7  A    between atoms: O4_16  and  C1_24 
REMARK    8  A    between atoms: C5_18  and  C6_21 
REMARK    9  A    between atoms: C6_21  and  O6_22 
REMARK   10  A    between atoms: C2_26  and  O2_27 
REMARK   11  A    between atoms: O2_27  and  S_40 
REMARK   12  A    between atoms: C3_29  and  O3_30 
REMARK   13  A    between atoms: C4_33  and  O4_34 
REMARK   14  A    between atoms: O4_34  and  C1_41 
REMARK   15  A    between atoms: C5_35  and  C6_37 
REMARK   16  A    between atoms: S1_43  and  N2_45 
REMARK   17  A    between atoms: C2_44  and  N2_45 
REMARK   18  A    between atoms: S2_48  and  O6_60 
REMARK   19  A    between atoms: C3_49  and  O3_50 
REMARK   20  A    between atoms: C4_53  and  O4_54 
REMARK   21  A    between atoms: O4_54  and  C1_62 
REMARK   22  A    between atoms: C5_56  and  C6_59 
REMARK   23  A    between atoms: C6_59  and  O6_60 
REMARK   24  A    between atoms: C2_64  and  O2_65 
REMARK   25  A    between atoms: O2_65  and  S_77 
REMARK   26  A    between atoms: C3_67  and  O3_68 
REMARK   27  A    between atoms: C5_72  and  C6_74 
ROOT
HETATM    1  C1  IDS C   2      31.027  72.661  15.055  1.00 40.81     0.294 C 
HETATM    2  C2  IDS C   2      30.864  73.419  13.735  1.00 40.20     0.231 C 
HETATM    3  C3  IDS C   2      30.581  72.459  12.583  1.00 39.01     0.185 C 
HETATM    4  C4  IDS C   2      31.735  71.451  12.408  1.00 37.65     0.195 C 
HETATM    5  C5  IDS C   2      32.544  71.355  13.708  1.00 35.99     0.257 C 
HETATM    6  O5  IDS C   2      31.646  71.373  14.843  1.00 39.00    -0.340 OA
ENDROOT
BRANCH   4   7
HETATM    7  O4  IDS C   2      31.201  70.149  12.059  1.00 35.98    -0.348 OA
BRANCH   7   8
HETATM    8  C1  SGN C   3      31.453  69.710  10.751  1.00 35.40     0.287 C 
HETATM    9  C2  SGN C   3      30.137  69.298  10.068  1.00 33.71     0.182 C 
HETATM   10  C3  SGN C   3      29.589  67.973  10.611  1.00 35.79     0.178 C 
HETATM   11  C4  SGN C   3      30.682  66.894  10.703  1.00 36.62     0.186 C 
HETATM   12  C5  SGN C   3      31.915  67.456  11.400  1.00 39.32     0.181 C 
HETATM   13  O5  SGN C   3      32.375  68.635  10.716  1.00 37.58    -0.349 OA
BRANCH   9  14
HETATM   14  N2  SGN C   3      29.144  70.330  10.271  1.00 29.28    -0.289 N 
ATOM     15  H2  SGN C   3      28.750  70.509  11.195  1.00  0.00     0.175 HD
BRANCH  14  16
HETATM   16  S1  SGN C   3      28.670  71.207   8.954  1.00 27.84     0.205 S 
HETATM   17  O1S SGN C   3      29.801  71.142   8.047  1.00 27.65    -0.578 OA
HETATM   18  O2S SGN C   3      28.423  72.586   9.470  1.00 27.72    -0.578 OA
HETATM   19  O3S SGN C   3      27.435  70.598   8.369  1.00 28.50    -0.578 OA
ENDBRANCH  14  16
ENDBRANCH   9  14
BRANCH  10  20
HETATM   20  O3  SGN C   3      28.525  67.521   9.776  1.00 34.89    -0.391 OA
ATOM     21  H3  SGN C   3      28.361  68.164   9.096  1.00  0.00     0.210 HD
ENDBRANCH  10  20
BRANCH  11  22
HETATM   22  O4  SGN C   3      30.187  65.785  11.474  1.00 37.13    -0.348 OA
BRANCH  22  23
HETATM   23  C1  UAP C   4      30.524  64.530  10.992  1.00 39.64     0.294 C 
HETATM   24  C2  UAP C   4      31.001  64.633   9.555  1.00 38.70     0.228 C 
HETATM   25  C3  UAP C   4      31.278  63.241   8.994  1.00 38.51     0.156 C 
HETATM   26  C4  UAP C   4      32.025  62.268  10.018  1.00 38.14     0.077 C 
HETATM   27  C5  UAP C   4      32.111  62.752  11.332  1.00 38.51     0.228 C 
HETATM   28  O5  UAP C   4      31.581  64.026  11.798  1.00 37.46    -0.343 OA
BRANCH  24  29
HETATM   29  O2  UAP C   4      29.960  65.239   8.722  1.00 40.54    -0.244 OA
BRANCH  29  30
HETATM   30  S   UAP C   4      30.321  65.930   7.323  1.00 40.49     0.252 S 
HETATM   31  O1S UAP C   4      29.413  67.076   7.166  1.00 40.89    -0.572 OA
HETATM   32  O2S UAP C   4      30.102  64.917   6.281  1.00 37.88    -0.572 OA
HETATM   33  O3S UAP C   4      31.729  66.349   7.399  1.00 37.47    -0.572 OA
ENDBRANCH  29  30
ENDBRANCH  24  29
BRANCH  25  34
HETATM   34  O3  UAP C   4      32.056  63.366   7.814  1.00 38.58    -0.393 OA
ATOM     35  H3  UAP C   4      32.881  63.784   8.030  1.00  0.00     0.210 HD
ENDBRANCH  25  34
BRANCH  27  36
HETATM   36  C6  UAP C   4      32.805  62.004  12.417  1.00 37.96     0.203 C 
HETATM   37  O6A UAP C   4      32.320  62.048  13.565  1.00 40.05    -0.646 OA
HETATM   38  O6B UAP C   4      33.842  61.370  12.128  1.00 36.71    -0.646 OA
ENDBRANCH  27  36
ENDBRANCH  22  23
ENDBRANCH  11  22
BRANCH  12  39
HETATM   39  C6  SGN C   3      33.075  66.503  11.467  1.00 42.65     0.227 C 
BRANCH  39  40
HETATM   40  O6  SGN C   3      33.745  66.789  12.713  1.00 51.09    -0.254 OA
BRANCH  40  41
HETATM   41  S2  SGN C   3      34.645  65.619  13.318  1.00 54.80     0.251 S 
HETATM   42  O4S SGN C   3      35.785  66.250  14.008  1.00 54.99    -0.572 OA
HETATM   43  O5S SGN C   3      35.090  64.782  12.164  1.00 53.99    -0.572 OA
HETATM   44  O6S SGN C   3      33.802  64.871  14.242  1.00 55.43    -0.572 OA
ENDBRANCH  40  41
ENDBRANCH  39  40
ENDBRANCH  12  39
ENDBRANCH   7   8
ENDBRANCH   4   7
BRANCH   3  45
HETATM   45  O3  IDS C   2      30.402  73.199  11.383  1.00 39.65    -0.390 OA
ATOM     46  H3  IDS C   2      29.492  73.459  11.304  1.00  0.00     0.210 HD
ENDBRANCH   3  45
BRANCH   5  47
HETATM   47  C6  IDS C   2      33.424  70.118  13.828  1.00 36.10     0.206 C 
HETATM   48  O6A IDS C   2      34.362  69.992  13.010  1.00 32.44    -0.646 OA
HETATM   49  O6B IDS C   2      33.177  69.298  14.744  1.00 33.44    -0.646 OA
ENDBRANCH   5  47
BRANCH   2  50
HETATM   50  O2  IDS C   2      29.746  74.349  13.839  1.00 43.59    -0.244 OA
BRANCH  50  51
HETATM   51  S   IDS C   2      29.999  75.912  13.639  1.00 44.11     0.252 S 
HETATM   52  O1S IDS C   2      28.716  76.608  13.991  1.00 44.48    -0.572 OA
HETATM   53  O2S IDS C   2      30.372  76.113  12.223  1.00 44.29    -0.572 OA
HETATM   54  O3S IDS C   2      31.079  76.282  14.537  1.00 44.74    -0.572 OA
ENDBRANCH  50  51
ENDBRANCH   2  50
BRANCH   1  55
HETATM   55  O4  SGN C   1      31.826  73.399  15.917  1.00 44.73    -0.348 OA
BRANCH  55  56
HETATM   56  C4  SGN C   1      31.693  73.149  17.333  1.00 48.25     0.186 C 
HETATM   57  C3  SGN C   1      32.884  72.319  17.827  1.00 48.43     0.178 C 
HETATM   58  C2  SGN C   1      32.833  72.181  19.348  1.00 48.58     0.181 C 
HETATM   59  C1  SGN C   1      32.715  73.543  20.032  1.00 50.40     0.283 C 
HETATM   60  O5  SGN C   1      31.581  74.255  19.520  1.00 50.82    -0.349 OA
HETATM   61  C5  SGN C   1      31.655  74.485  18.094  1.00 51.58     0.181 C 
BRANCH  57  62
HETATM   62  O3  SGN C   1      32.852  71.028  17.239  1.00 46.09    -0.391 OA
ATOM     63  H3  SGN C   1      32.219  71.022  16.530  1.00  0.00     0.210 HD
ENDBRANCH  57  62
BRANCH  58  64
HETATM   64  N2  SGN C   1      34.011  71.494  19.834  1.00 48.56    -0.289 N 
ATOM     65  H2  SGN C   1      34.955  71.855  19.698  1.00  0.00     0.175 HD
BRANCH  64  66
HETATM   66  S1  SGN C   1      33.702  70.076  20.628  1.00 47.67     0.205 S 
HETATM   67  O1S SGN C   1      35.013  69.454  20.915  1.00 47.59    -0.578 OA
HETATM   68  O2S SGN C   1      32.894  69.277  19.700  1.00 48.55    -0.578 OA
HETATM   69  O3S SGN C   1      32.964  70.432  21.860  1.00 47.08    -0.578 OA
ENDBRANCH  64  66
ENDBRANCH  58  64
BRANCH  59  70
HETATM   70  O1  SGN C   1      33.856  74.293  19.789  1.00 51.36    -0.369 OA
ATOM     71  H1  SGN C   1      33.757  74.780  18.980  1.00  0.00     0.212 HD
ENDBRANCH  59  70
BRANCH  61  72
HETATM   72  C6  SGN C   1      30.458  75.327  17.730  1.00 55.48     0.227 C 
BRANCH  72  73
HETATM   73  O6  SGN C   1      30.296  76.381  18.704  1.00 61.59    -0.254 OA
BRANCH  73  74
HETATM   74  S2  SGN C   1      28.832  76.513  19.321  1.00 65.98     0.251 S 
HETATM   75  O4S SGN C   1      28.722  77.914  19.926  1.00 65.09    -0.572 OA
HETATM   76  O5S SGN C   1      28.714  75.477  20.331  1.00 65.58    -0.572 OA
HETATM   77  O6S SGN C   1      27.819  76.302  18.152  1.00 65.84    -0.572 OA
ENDBRANCH  73  74
ENDBRANCH  72  73
ENDBRANCH  61  72
ENDBRANCH  55  56
ENDBRANCH   1  55
TORSDOF 27
ENDMDL
MODEL 99
REMARK VINA RESULT:      -3.5      4.291      8.188
REMARK  27 active torsions:
REMARK  status: ('A' for Active; 'I' for Inactive)
REMARK    1  A    between atoms: C1_1  and  O1_2 
REMARK    2  A    between atoms: S1_5  and  N2_7 
REMARK    3  A    between atoms: C2_6  and  N2_7 
REMARK    4  A    between atoms: S2_10  and  O6_22 
REMARK    5  A    between atoms: C3_11  and  O3_12 
REMARK    6  A    between atoms: C4_15  and  O4_16 
REMARK    7  A    between atoms: O4_16  and  C1_24 
REMARK    8  A    between atoms: C5_18  and  C6_21 
REMARK    9  A    between atoms: C6_21  and  O6_22 
REMARK   10  A    between atoms: C2_26  and  O2_27 
REMARK   11  A    between atoms: O2_27  and  S_40 
REMARK   12  A    between atoms: C3_29  and  O3_30 
REMARK   13  A    between atoms: C4_33  and  O4_34 
REMARK   14  A    between atoms: O4_34  and  C1_41 
REMARK   15  A    between atoms: C5_35  and  C6_37 
REMARK   16  A    between atoms: S1_43  and  N2_45 
REMARK   17  A    between atoms: C2_44  and  N2_45 
REMARK   18  A    between atoms: S2_48  and  O6_60 
REMARK   19  A    between atoms: C3_49  and  O3_50 
REMARK   20  A    between atoms: C4_53  and  O4_54 
REMARK   21  A    between atoms: O4_54  and  C1_62 
REMARK   22  A    between atoms: C5_56  and  C6_59 
REMARK   23  A    between atoms: C6_59  and  O6_60 
REMARK   24  A    between atoms: C2_64  and  O2_65 
REMARK   25  A    between atoms: O2_65  and  S_77 
REMARK   26  A    between atoms: C3_67  and  O3_68 
REMARK   27  A    between atoms: C5_72  and  C6_74 
ROOT
HETATM    1  C1  IDS C   2      32.366  72.784  13.792  1.00 40.81     0.294 C 
HETATM    2  C2  IDS C   2      31.416  73.764  14.486  1.00 40.20     0.231 C 
HETATM    3  C3  IDS C   2      31.704  73.841  15.982  1.00 39.01     0.185 C 
HETATM    4  C4  IDS C   2      31.530  72.462  16.650  1.00 37.65     0.195 C 
HETATM    5  C5  IDS C   2      31.638  71.354  15.594  1.00 35.99     0.257 C 
HETATM    6  O5  IDS C   2      32.694  71.675  14.658  1.00 39.00    -0.340 OA
ENDROOT
BRANCH   4   7
HETATM    7  O4  IDS C   2      32.545  72.277  17.668  1.00 35.98    -0.348 OA
BRANCH   7   8
HETATM    8  C1  SGN C   3      32.096  72.296  18.997  1.00 35.40     0.287 C 
HETATM    9  C2  SGN C   3      32.906  73.317  19.815  1.00 33.71     0.182 C 
HETATM   10  C3  SGN C   3      34.332  72.833  20.104  1.00 35.79     0.178 C 
HETATM   11  C4  SGN C   3      34.354  71.379  20.605  1.00 36.62     0.186 C 
HETATM   12  C5  SGN C   3      33.508  70.498  19.694  1.00 39.32     0.181 C 
HETATM   13  O5  SGN C   3      32.170  71.019  19.606  1.00 37.58    -0.349 OA
BRANCH   9  14
HETATM   14  N2  SGN C   3      32.977  74.568  19.091  1.00 29.28    -0.289 N 
ATOM     15  H2  SGN C   3      33.478  74.637  18.206  1.00  0.00     0.175 HD
BRANCH  14  16
HETATM   16  S1  SGN C   3      32.220  75.879  19.751  1.00 27.84     0.205 S 
HETATM   17  O1S SGN C   3      32.713  77.008  18.986  1.00 27.65    -0.578 OA
HETATM   18  O2S SGN C   3      32.662  75.911  21.177  1.00 27.72    -0.578 OA
HETATM   19  O3S SGN C   3      30.737  75.711  19.629  1.00 28.50    -0.578 OA
ENDBRANCH  14  16
ENDBRANCH   9  14
BRANCH  10  20
HETATM   20  O3  SGN C   3      34.939  73.692  21.066  1.00 34.89    -0.391 OA
ATOM     21  H3  SGN C   3      35.351  73.167  21.743  1.00  0.00     0.210 HD
ENDBRANCH  10  20
BRANCH  11  22
HETATM   22  O4  SGN C   3      35.708  70.892  20.583  1.00 37.13    -0.348 OA
BRANCH  22  23
HETATM   23  C1  UAP C   4      36.565  71.560  19.722  1.00 39.64     0.294 C 
HETATM   24  C2  UAP C   4      37.843  71.940  20.448  1.00 38.70     0.228 C 
HETATM   25  C3  UAP C   4      38.743  72.760  19.528  1.00 38.51     0.156 C 
HETATM   26  C4  UAP C   4      38.806  72.211  18.027  1.00 38.14     0.077 C 
HETATM   27  C5  UAP C   4      37.867  71.214  17.728  1.00 38.51     0.228 C 
HETATM   28  O5  UAP C   4      36.882  70.676  18.655  1.00 37.46    -0.343 OA
BRANCH  24  29
HETATM   29  O2  UAP C   4      37.532  72.776  21.609  1.00 40.54    -0.244 OA
BRANCH  29  30
HETATM   30  S   UAP C   4      37.830  72.265  23.097  1.00 40.49     0.252 S 
HETATM   31  O1S UAP C   4      38.632  71.038  22.975  1.00 40.89    -0.572 OA
HETATM   32  O2S UAP C   4      36.527  72.001  23.724  1.00 37.88    -0.572 OA
HETATM   33  O3S UAP C   4      38.567  73.338  23.783  1.00 37.47    -0.572 OA
ENDBRANCH  29  30
ENDBRANCH  24  29
BRANCH  25  34
HETATM   34  O3  UAP C   4      40.054  72.790  20.071  1.00 38.58    -0.393 OA
ATOM     35  H3  UAP C   4      40.332  73.694  20.157  1.00  0.00     0.210 HD
ENDBRANCH  25  34
BRANCH  27  36
HETATM   36  C6  UAP C   4      37.799  70.553  16.395  1.00 37.96     0.203 C 
HETATM   37  O6A UAP C   4      38.688  69.730  16.099  1.00 40.05    -0.646 OA
HETATM   38  O6B UAP C   4      36.857  70.856  15.632  1.00 36.71    -0.646 OA
ENDBRANCH  27  36
ENDBRANCH  22  23
ENDBRANCH  11  22
BRANCH  12  39
HETATM   39  C6  SGN C   3      33.397  69.069  20.147  1.00 42.65     0.227 C 
BRANCH  39  40
HETATM   40  O6  SGN C   3      33.168  69.127  21.572  1.00 51.09    -0.254 OA
BRANCH  40  41
HETATM   41  S2  SGN C   3      33.835  67.969  22.444  1.00 54.80     0.251 S 
HETATM   42  O4S SGN C   3      34.212  68.555  23.743  1.00 54.99    -0.572 OA
HETATM   43  O5S SGN C   3      35.029  67.495  21.682  1.00 53.99    -0.572 OA
HETATM   44  O6S SGN C   3      32.832  66.923  22.594  1.00 55.43    -0.572 OA
ENDBRANCH  40  41
ENDBRANCH  39  40
ENDBRANCH  12  39
ENDBRANCH   7   8
ENDBRANCH   4   7
BRANCH   3  45
HETATM   45  O3  IDS C   2      30.829  74.783  16.586  1.00 39.65    -0.390 OA
ATOM     46  H3  IDS C   2      30.903  75.617  16.138  1.00  0.00     0.210 HD
ENDBRANCH   3  45
BRANCH   5  47
HETATM   47  C6  IDS C   2      31.911  69.962  16.148  1.00 36.10     0.206 C 
HETATM   48  O6A IDS C   2      32.902  69.344  15.700  1.00 32.44    -0.646 OA
HETATM   49  O6B IDS C   2      31.143  69.511  17.031  1.00 33.44    -0.646 OA
ENDBRANCH   5  47
BRANCH   2  50
HETATM   50  O2  IDS C   2      31.587  75.096  13.920  1.00 43.59    -0.244 OA
BRANCH  50  51
HETATM   51  S   IDS C   2      30.302  75.990  13.605  1.00 44.11     0.252 S 
HETATM   52  O1S IDS C   2      30.451  76.483  12.194  1.00 44.48    -0.572 OA
HETATM   53  O2S IDS C   2      30.295  77.097  14.584  1.00 44.29    -0.572 OA
HETATM   54  O3S IDS C   2      29.143  75.129  13.757  1.00 44.74    -0.572 OA
ENDBRANCH  50  51
ENDBRANCH   2  50
BRANCH   1  55
HETATM   55  O4  SGN C   1      31.762  72.286  12.646  1.00 44.73    -0.348 OA
BRANCH  55  56
HETATM   56  C4  SGN C   1      32.554  72.233  11.440  1.00 48.25     0.186 C 
HETATM   57  C3  SGN C   1      33.384  73.516  11.308  1.00 48.43     0.178 C 
HETATM   58  C2  SGN C   1      34.339  73.403  10.120  1.00 48.58     0.181 C 
HETATM   59  C1  SGN C   1      35.188  72.136  10.201  1.00 50.40     0.283 C 
HETATM   60  O5  SGN C   1      34.345  70.984  10.321  1.00 50.82    -0.349 OA
HETATM   61  C5  SGN C   1      33.500  71.021  11.494  1.00 51.58     0.181 C 
BRANCH  57  62
HETATM   62  O3  SGN C   1      32.526  74.629  11.114  1.00 46.09    -0.391 OA
ATOM     63  H3  SGN C   1      32.355  74.737  10.186  1.00  0.00     0.210 HD
ENDBRANCH  57  62
BRANCH  58  64
HETATM   64  N2  SGN C   1      35.203  74.564  10.054  1.00 48.56    -0.289 N 
ATOM     65  H2  SGN C   1      35.863  74.803  10.794  1.00  0.00     0.175 HD
BRANCH  64  66
HETATM   66  S1  SGN C   1      35.032  75.471   8.680  1.00 47.67     0.205 S 
HETATM   67  O1S SGN C   1      33.580  75.577   8.419  1.00 47.59    -0.578 OA
HETATM   68  O2S SGN C   1      35.738  74.727   7.632  1.00 48.55    -0.578 OA
HETATM   69  O3S SGN C   1      35.653  76.784   8.960  1.00 47.08    -0.578 OA
ENDBRANCH  64  66
ENDBRANCH  58  64
BRANCH  59  70
HETATM   70  O1  SGN C   1      36.019  72.194  11.311  1.00 51.36    -0.369 OA
ATOM     71  H1  SGN C   1      36.911  72.371  11.038  1.00  0.00     0.212 HD
ENDBRANCH  59  70
BRANCH  61  72
HETATM   72  C6  SGN C   1      32.760  69.708  11.535  1.00 55.48     0.227 C 
BRANCH  72  73
HETATM   73  O6  SGN C   1      32.082  69.496  10.278  1.00 61.59    -0.254 OA
BRANCH  73  74
HETATM   74  S2  SGN C   1      30.566  69.021  10.398  1.00 65.98     0.251 S 
HETATM   75  O4S SGN C   1      30.183  68.389   9.057  1.00 65.09    -0.572 OA
HETATM   76  O5S SGN C   1      29.781  70.210  10.677  1.00 65.58    -0.572 OA
HETATM   77  O6S SGN C   1      30.497  67.991  11.568  1.00 65.84    -0.572 OA
ENDBRANCH  73  74
ENDBRANCH  72  73
ENDBRANCH  61  72
ENDBRANCH  55  56
ENDBRANCH   1  55
TORSDOF 27
ENDMDL
MODEL 100
REMARK VINA RESULT:      -3.4      4.094      8.551
REMARK  27 active torsions:
REMARK  status: ('A' for Active; 'I' for Inactive)
REMARK    1  A    between atoms: C1_1  and  O1_2 
REMARK    2  A    between atoms: S1_5  and  N2_7 
REMARK    3  A    between atoms: C2_6  and  N2_7 
REMARK    4  A    between atoms: S2_10  and  O6_22 
REMARK    5  A    between atoms: C3_11  and  O3_12 
REMARK    6  A    between atoms: C4_15  and  O4_16 
REMARK    7  A    between atoms: O4_16  and  C1_24 
REMARK    8  A    between atoms: C5_18  and  C6_21 
REMARK    9  A    between atoms: C6_21  and  O6_22 
REMARK   10  A    between atoms: C2_26  and  O2_27 
REMARK   11  A    between atoms: O2_27  and  S_40 
REMARK   12  A    between atoms: C3_29  and  O3_30 
REMARK   13  A    between atoms: C4_33  and  O4_34 
REMARK   14  A    between atoms: O4_34  and  C1_41 
REMARK   15  A    between atoms: C5_35  and  C6_37 
REMARK   16  A    between atoms: S1_43  and  N2_45 
REMARK   17  A    between atoms: C2_44  and  N2_45 
REMARK   18  A    between atoms: S2_48  and  O6_60 
REMARK   19  A    between atoms: C3_49  and  O3_50 
REMARK   20  A    between atoms: C4_53  and  O4_54 
REMARK   21  A    between atoms: O4_54  and  C1_62 
REMARK   22  A    between atoms: C5_56  and  C6_59 
REMARK   23  A    between atoms: C6_59  and  O6_60 
REMARK   24  A    between atoms: C2_64  and  O2_65 
REMARK   25  A    between atoms: O2_65  and  S_77 
REMARK   26  A    between atoms: C3_67  and  O3_68 
REMARK   27  A    between atoms: C5_72  and  C6_74 
ROOT
HETATM    1  C1  IDS C   2      32.369  72.765  13.851  1.00 40.81     0.294 C 
HETATM    2  C2  IDS C   2      31.425  73.747  14.550  1.00 40.20     0.231 C 
HETATM    3  C3  IDS C   2      31.723  73.825  16.044  1.00 39.01     0.185 C 
HETATM    4  C4  IDS C   2      31.553  72.447  16.715  1.00 37.65     0.195 C 
HETATM    5  C5  IDS C   2      31.652  71.338  15.660  1.00 35.99     0.257 C 
HETATM    6  O5  IDS C   2      32.703  71.657  14.716  1.00 39.00    -0.340 OA
ENDROOT
BRANCH   4   7
HETATM    7  O4  IDS C   2      32.575  72.263  17.726  1.00 35.98    -0.348 OA
BRANCH   7   8
HETATM    8  C1  SGN C   3      32.133  72.272  19.057  1.00 35.40     0.287 C 
HETATM    9  C2  SGN C   3      32.953  73.282  19.880  1.00 33.71     0.182 C 
HETATM   10  C3  SGN C   3      34.378  72.788  20.156  1.00 35.79     0.178 C 
HETATM   11  C4  SGN C   3      34.396  71.329  20.644  1.00 36.62     0.186 C 
HETATM   12  C5  SGN C   3      33.541  70.461  19.730  1.00 39.32     0.181 C 
HETATM   13  O5  SGN C   3      32.205  70.989  19.654  1.00 37.58    -0.349 OA
BRANCH   9  14
HETATM   14  N2  SGN C   3      33.026  74.539  19.168  1.00 29.28    -0.289 N 
ATOM     15  H2  SGN C   3      33.513  74.611  18.274  1.00  0.00     0.175 HD
BRANCH  14  16
HETATM   16  S1  SGN C   3      32.294  75.851  19.853  1.00 27.84     0.205 S 
HETATM   17  O1S SGN C   3      32.752  76.978  19.061  1.00 27.65    -0.578 OA
HETATM   18  O2S SGN C   3      32.797  75.891  21.258  1.00 27.72    -0.578 OA
HETATM   19  O3S SGN C   3      30.808  75.680  19.794  1.00 28.50    -0.578 OA
ENDBRANCH  14  16
ENDBRANCH   9  14
BRANCH  10  20
HETATM   20  O3  SGN C   3      34.995  73.635  21.123  1.00 34.89    -0.391 OA
ATOM     21  H3  SGN C   3      35.408  73.102  21.793  1.00  0.00     0.210 HD
ENDBRANCH  10  20
BRANCH  11  22
HETATM   22  O4  SGN C   3      35.747  70.837  20.611  1.00 37.13    -0.348 OA
BRANCH  22  23
HETATM   23  C1  UAP C   4      36.589  71.474  19.713  1.00 39.64     0.294 C 
HETATM   24  C2  UAP C   4      37.870  71.899  20.409  1.00 38.70     0.228 C 
HETATM   25  C3  UAP C   4      38.753  72.686  19.446  1.00 38.51     0.156 C 
HETATM   26  C4  UAP C   4      38.808  72.073  17.970  1.00 38.14     0.077 C 
HETATM   27  C5  UAP C   4      37.877  71.054  17.723  1.00 38.51     0.228 C 
HETATM   28  O5  UAP C   4      36.905  70.548  18.682  1.00 37.46    -0.343 OA
BRANCH  24  29
HETATM   29  O2  UAP C   4      37.561  72.781  21.536  1.00 40.54    -0.244 OA
BRANCH  29  30
HETATM   30  S   UAP C   4      37.754  72.287  23.047  1.00 40.49     0.252 S 
HETATM   31  O1S UAP C   4      38.436  70.986  22.989  1.00 40.89    -0.572 OA
HETATM   32  O2S UAP C   4      36.409  72.169  23.629  1.00 37.88    -0.572 OA
HETATM   33  O3S UAP C   4      38.566  73.304  23.734  1.00 37.47    -0.572 OA
ENDBRANCH  29  30
ENDBRANCH  24  29
BRANCH  25  34
HETATM   34  O3  UAP C   4      40.068  72.752  19.975  1.00 38.58    -0.393 OA
ATOM     35  H3  UAP C   4      40.339  73.662  20.018  1.00  0.00     0.210 HD
ENDBRANCH  25  34
BRANCH  27  36
HETATM   36  C6  UAP C   4      37.803  70.336  16.421  1.00 37.96     0.203 C 
HETATM   37  O6A UAP C   4      38.701  69.514  16.150  1.00 40.05    -0.646 OA
HETATM   38  O6B UAP C   4      36.847  70.591  15.658  1.00 36.71    -0.646 OA
ENDBRANCH  27  36
ENDBRANCH  22  23
ENDBRANCH  11  22
BRANCH  12  39
HETATM   39  C6  SGN C   3      33.425  69.028  20.171  1.00 42.65     0.227 C 
BRANCH  39  40
HETATM   40  O6  SGN C   3      33.156  69.076  21.589  1.00 51.09    -0.254 OA
BRANCH  40  41
HETATM   41  S2  SGN C   3      33.820  67.927  22.475  1.00 54.80     0.251 S 
HETATM   42  O4S SGN C   3      34.172  68.521  23.777  1.00 54.99    -0.572 OA
HETATM   43  O5S SGN C   3      35.030  67.462  21.733  1.00 53.99    -0.572 OA
HETATM   44  O6S SGN C   3      32.825  66.872  22.614  1.00 55.43    -0.572 OA
ENDBRANCH  40  41
ENDBRANCH  39  40
ENDBRANCH  12  39
ENDBRANCH   7   8
ENDBRANCH   4   7
BRANCH   3  45
HETATM   45  O3  IDS C   2      30.852  74.769  16.653  1.00 39.65    -0.390 OA
ATOM     46  H3  IDS C   2      30.924  75.602  16.203  1.00  0.00     0.210 HD
ENDBRANCH   3  45
BRANCH   5  47
HETATM   47  C6  IDS C   2      31.929  69.947  16.213  1.00 36.10     0.206 C 
HETATM   48  O6A IDS C   2      32.932  69.339  15.779  1.00 32.44    -0.646 OA
HETATM   49  O6B IDS C   2      31.151  69.486  17.082  1.00 33.44    -0.646 OA
ENDBRANCH   5  47
BRANCH   2  50
HETATM   50  O2  IDS C   2      31.592  75.078  13.981  1.00 43.59    -0.244 OA
BRANCH  50  51
HETATM   51  S   IDS C   2      30.305  75.966  13.660  1.00 44.11     0.252 S 
HETATM   52  O1S IDS C   2      30.479  76.494  12.264  1.00 44.48    -0.572 OA
HETATM   53  O2S IDS C   2      30.265  77.050  14.664  1.00 44.29    -0.572 OA
HETATM   54  O3S IDS C   2      29.152  75.091  13.766  1.00 44.74    -0.572 OA
ENDBRANCH  50  51
ENDBRANCH   2  50
BRANCH   1  55
HETATM   55  O4  SGN C   1      31.756  72.267  12.710  1.00 44.73    -0.348 OA
BRANCH  55  56
HETATM   56  C4  SGN C   1      32.608  71.749  11.664  1.00 48.25     0.186 C 
HETATM   57  C3  SGN C   1      32.413  70.233  11.540  1.00 48.43     0.178 C 
HETATM   58  C2  SGN C   1      33.191  69.701  10.337  1.00 48.58     0.181 C 
HETATM   59  C1  SGN C   1      32.843  70.466   9.061  1.00 50.40     0.283 C 
HETATM   60  O5  SGN C   1      33.052  71.870   9.255  1.00 50.82    -0.349 OA
HETATM   61  C5  SGN C   1      32.250  72.418  10.326  1.00 51.58     0.181 C 
BRANCH  57  62
HETATM   62  O3  SGN C   1      32.873  69.588  12.717  1.00 46.09    -0.391 OA
ATOM     63  H3  SGN C   1      33.800  69.398  12.630  1.00  0.00     0.210 HD
ENDBRANCH  57  62
BRANCH  58  64
HETATM   64  N2  SGN C   1      32.925  68.290  10.146  1.00 48.56    -0.289 N 
ATOM     65  H2  SGN C   1      31.997  67.929   9.928  1.00  0.00     0.175 HD
BRANCH  64  66
HETATM   66  S1  SGN C   1      34.250  67.313  10.312  1.00 47.67     0.205 S 
HETATM   67  O1S SGN C   1      34.989  67.796  11.499  1.00 47.59    -0.578 OA
HETATM   68  O2S SGN C   1      35.013  67.476   9.071  1.00 48.55    -0.578 OA
HETATM   69  O3S SGN C   1      33.739  65.935  10.487  1.00 47.08    -0.578 OA
ENDBRANCH  64  66
ENDBRANCH  58  64
BRANCH  59  70
HETATM   70  O1  SGN C   1      31.512  70.257   8.733  1.00 51.36    -0.369 OA
ATOM     71  H1  SGN C   1      31.450  69.664   7.994  1.00  0.00     0.212 HD
ENDBRANCH  59  70
BRANCH  61  72
HETATM   72  C6  SGN C   1      32.500  73.905  10.335  1.00 55.48     0.227 C 
BRANCH  72  73
HETATM   73  O6  SGN C   1      33.894  74.163  10.061  1.00 61.59    -0.254 OA
BRANCH  73  74
HETATM   74  S2  SGN C   1      34.563  75.293  10.963  1.00 65.98     0.251 S 
HETATM   75  O4S SGN C   1      35.912  75.638  10.327  1.00 65.09    -0.572 OA
HETATM   76  O5S SGN C   1      34.720  74.725  12.289  1.00 65.58    -0.572 OA
HETATM   77  O6S SGN C   1      33.592  76.515  10.966  1.00 65.84    -0.572 OA
ENDBRANCH  73  74
ENDBRANCH  72  73
ENDBRANCH  61  72
ENDBRANCH  55  56
ENDBRANCH   1  55
TORSDOF 27
ENDMDL
