MODEL 1
REMARK VINA RESULT:      -8.0      0.000      0.000
REMARK  27 active torsions:
REMARK  status: ('A' for Active; 'I' for Inactive)
REMARK    1  A    between atoms: C1_1  and  O1_2 
REMARK    2  A    between atoms: S1_5  and  N2_7 
REMARK    3  A    between atoms: C2_6  and  N2_7 
REMARK    4  A    between atoms: S2_10  and  O6_22 
REMARK    5  A    between atoms: C3_11  and  O3_12 
REMARK    6  A    between atoms: C4_15  and  O4_16 
REMARK    7  A    between atoms: O4_16  and  C1_24 
REMARK    8  A    between atoms: C5_18  and  C6_21 
REMARK    9  A    between atoms: C6_21  and  O6_22 
REMARK   10  A    between atoms: C2_26  and  O2_27 
REMARK   11  A    between atoms: O2_27  and  S_40 
REMARK   12  A    between atoms: C3_29  and  O3_30 
REMARK   13  A    between atoms: C4_33  and  O4_34 
REMARK   14  A    between atoms: O4_34  and  C1_41 
REMARK   15  A    between atoms: C5_35  and  C6_37 
REMARK   16  A    between atoms: S1_43  and  N2_45 
REMARK   17  A    between atoms: C2_44  and  N2_45 
REMARK   18  A    between atoms: S2_48  and  O6_60 
REMARK   19  A    between atoms: C3_49  and  O3_50 
REMARK   20  A    between atoms: C4_53  and  O4_54 
REMARK   21  A    between atoms: O4_54  and  C1_62 
REMARK   22  A    between atoms: C5_56  and  C6_59 
REMARK   23  A    between atoms: C6_59  and  O6_60 
REMARK   24  A    between atoms: C2_64  and  O2_65 
REMARK   25  A    between atoms: O2_65  and  S_77 
REMARK   26  A    between atoms: C3_67  and  O3_68 
REMARK   27  A    between atoms: C5_72  and  C6_74 
ROOT
HETATM    1  C1  IDS C   2      28.571  82.324  13.604  1.00 40.81     0.294 C 
HETATM    2  C2  IDS C   2      29.082  81.263  12.626  1.00 40.20     0.231 C 
HETATM    3  C3  IDS C   2      29.029  79.872  13.250  1.00 39.01     0.185 C 
HETATM    4  C4  IDS C   2      29.900  79.802  14.521  1.00 37.65     0.195 C 
HETATM    5  C5  IDS C   2      30.131  81.215  15.073  1.00 35.99     0.257 C 
HETATM    6  O5  IDS C   2      28.909  81.984  14.967  1.00 39.00    -0.340 OA
ENDROOT
BRANCH   4   7
HETATM    7  O4  IDS C   2      29.246  78.980  15.520  1.00 35.98    -0.348 OA
BRANCH   7   8
HETATM    8  C1  SGN C   3      29.041  77.636  15.175  1.00 35.40     0.287 C 
HETATM    9  C2  SGN C   3      28.376  76.885  16.342  1.00 33.71     0.182 C 
HETATM   10  C3  SGN C   3      29.346  76.636  17.502  1.00 35.79     0.178 C 
HETATM   11  C4  SGN C   3      30.698  76.087  17.014  1.00 36.62     0.186 C 
HETATM   12  C5  SGN C   3      31.220  76.935  15.860  1.00 39.32     0.181 C 
HETATM   13  O5  SGN C   3      30.245  76.988  14.804  1.00 37.58    -0.349 OA
BRANCH   9  14
HETATM   14  N2  SGN C   3      27.252  77.652  16.832  1.00 29.28    -0.289 N 
ATOM     15  H2  SGN C   3      27.370  78.353  17.564  1.00  0.00     0.175 HD
BRANCH  14  16
HETATM   16  S1  SGN C   3      25.771  77.353  16.164  1.00 27.84     0.205 S 
HETATM   17  O1S SGN C   3      24.837  78.061  17.019  1.00 27.65    -0.578 OA
HETATM   18  O2S SGN C   3      25.604  75.871  16.229  1.00 27.72    -0.578 OA
HETATM   19  O3S SGN C   3      25.749  77.858  14.755  1.00 28.50    -0.578 OA
ENDBRANCH  14  16
ENDBRANCH   9  14
BRANCH  10  20
HETATM   20  O3  SGN C   3      28.756  75.727  18.429  1.00 34.89    -0.391 OA
ATOM     21  H3  SGN C   3      27.909  76.060  18.702  1.00  0.00     0.210 HD
ENDBRANCH  10  20
BRANCH  11  22
HETATM   22  O4  SGN C   3      31.649  76.145  18.091  1.00 37.13    -0.348 OA
BRANCH  22  23
HETATM   23  C1  UAP C   4      32.267  74.944  18.403  1.00 39.64     0.294 C 
HETATM   24  C2  UAP C   4      33.579  75.203  19.122  1.00 38.70     0.228 C 
HETATM   25  C3  UAP C   4      34.304  73.885  19.378  1.00 38.51     0.156 C 
HETATM   26  C4  UAP C   4      33.345  72.701  19.860  1.00 38.14     0.077 C 
HETATM   27  C5  UAP C   4      31.974  72.979  19.762  1.00 38.51     0.228 C 
HETATM   28  O5  UAP C   4      31.399  74.221  19.265  1.00 37.46    -0.343 OA
BRANCH  24  29
HETATM   29  O2  UAP C   4      34.455  76.028  18.289  1.00 40.54    -0.244 OA
BRANCH  29  30
HETATM   30  S   UAP C   4      34.868  77.508  18.739  1.00 40.49     0.252 S 
HETATM   31  O1S UAP C   4      33.894  78.427  18.133  1.00 40.89    -0.572 OA
HETATM   32  O2S UAP C   4      36.227  77.743  18.229  1.00 37.88    -0.572 OA
HETATM   33  O3S UAP C   4      34.817  77.543  20.209  1.00 37.47    -0.572 OA
ENDBRANCH  29  30
ENDBRANCH  24  29
BRANCH  25  34
HETATM   34  O3  UAP C   4      35.315  74.095  20.351  1.00 38.58    -0.393 OA
ATOM     35  H3  UAP C   4      35.587  75.005  20.322  1.00  0.00     0.210 HD
ENDBRANCH  25  34
BRANCH  27  36
HETATM   36  C6  UAP C   4      30.928  72.015  20.200  1.00 37.96     0.203 C 
HETATM   37  O6A UAP C   4      30.411  71.275  19.340  1.00 40.05    -0.646 OA
HETATM   38  O6B UAP C   4      30.613  71.993  21.410  1.00 36.71    -0.646 OA
ENDBRANCH  27  36
ENDBRANCH  22  23
ENDBRANCH  11  22
BRANCH  12  39
HETATM   39  C6  SGN C   3      32.500  76.430  15.254  1.00 42.65     0.227 C 
BRANCH  39  40
HETATM   40  O6  SGN C   3      33.169  77.596  14.726  1.00 51.09    -0.254 OA
BRANCH  40  41
HETATM   41  S2  SGN C   3      33.422  77.614  13.150  1.00 54.80     0.251 S 
HETATM   42  O4S SGN C   3      34.812  78.053  12.932  1.00 54.99    -0.572 OA
HETATM   43  O5S SGN C   3      32.439  78.577  12.571  1.00 53.99    -0.572 OA
HETATM   44  O6S SGN C   3      33.203  76.256  12.671  1.00 55.43    -0.572 OA
ENDBRANCH  40  41
ENDBRANCH  39  40
ENDBRANCH  12  39
ENDBRANCH   7   8
ENDBRANCH   4   7
BRANCH   3  45
HETATM   45  O3  IDS C   2      29.479  78.911  12.305  1.00 39.65    -0.390 OA
ATOM     46  H3  IDS C   2      28.732  78.446  11.946  1.00  0.00     0.210 HD
ENDBRANCH   3  45
BRANCH   5  47
HETATM   47  C6  IDS C   2      30.594  81.272  16.522  1.00 36.10     0.206 C 
HETATM   48  O6A IDS C   2      31.216  80.284  16.971  1.00 32.44    -0.646 OA
HETATM   49  O6B IDS C   2      30.345  82.306  17.187  1.00 33.44    -0.646 OA
ENDBRANCH   5  47
BRANCH   2  50
HETATM   50  O2  IDS C   2      28.252  81.258  11.429  1.00 43.59    -0.244 OA
BRANCH  50  51
HETATM   51  S   IDS C   2      28.942  81.178   9.992  1.00 44.11     0.252 S 
HETATM   52  O1S IDS C   2      30.385  81.551  10.181  1.00 44.48    -0.572 OA
HETATM   53  O2S IDS C   2      28.229  82.131   9.115  1.00 44.29    -0.572 OA
HETATM   54  O3S IDS C   2      28.794  79.809   9.529  1.00 44.74    -0.572 OA
ENDBRANCH  50  51
ENDBRANCH   2  50
BRANCH   1  55
HETATM   55  O4  SGN C   1      29.145  83.550  13.299  1.00 44.73    -0.348 OA
BRANCH  55  56
HETATM   56  C4  SGN C   1      28.442  84.741  13.716  1.00 48.25     0.186 C 
HETATM   57  C3  SGN C   1      29.193  85.407  14.876  1.00 48.43     0.178 C 
HETATM   58  C2  SGN C   1      28.545  86.747  15.221  1.00 48.58     0.181 C 
HETATM   59  C1  SGN C   1      28.414  87.641  13.989  1.00 50.40     0.283 C 
HETATM   60  O5  SGN C   1      27.702  86.952  12.954  1.00 50.82    -0.349 OA
HETATM   61  C5  SGN C   1      28.350  85.728  12.540  1.00 51.58     0.181 C 
BRANCH  57  62
HETATM   62  O3  SGN C   1      29.164  84.564  16.018  1.00 46.09    -0.391 OA
ATOM     63  H3  SGN C   1      28.784  85.039  16.748  1.00  0.00     0.210 HD
ENDBRANCH  57  62
BRANCH  58  64
HETATM   64  N2  SGN C   1      29.313  87.432  16.240  1.00 48.56    -0.289 N 
ATOM     65  H2  SGN C   1      30.277  87.732  16.096  1.00  0.00     0.175 HD
BRANCH  64  66
HETATM   66  S1  SGN C   1      28.499  87.689  17.658  1.00 47.67     0.205 S 
HETATM   67  O1S SGN C   1      29.137  88.854  18.309  1.00 47.59    -0.578 OA
HETATM   68  O2S SGN C   1      28.664  86.454  18.431  1.00 48.55    -0.578 OA
HETATM   69  O3S SGN C   1      27.088  87.947  17.295  1.00 47.08    -0.578 OA
ENDBRANCH  64  66
ENDBRANCH  58  64
BRANCH  59  70
HETATM   70  O1  SGN C   1      29.673  87.976  13.514  1.00 51.36    -0.369 OA
ATOM     71  H1  SGN C   1      30.008  87.277  12.965  1.00  0.00     0.212 HD
ENDBRANCH  59  70
BRANCH  61  72
HETATM   72  C6  SGN C   1      27.546  85.183  11.386  1.00 55.48     0.227 C 
BRANCH  72  73
HETATM   73  O6  SGN C   1      26.203  85.710  11.441  1.00 61.59    -0.254 OA
BRANCH  73  74
HETATM   74  S2  SGN C   1      25.045  84.616  11.414  1.00 65.98     0.251 S 
HETATM   75  O4S SGN C   1      25.649  83.307  11.927  1.00 65.09    -0.572 OA
HETATM   76  O5S SGN C   1      24.612  84.506  10.033  1.00 65.58    -0.572 OA
HETATM   77  O6S SGN C   1      23.901  85.133  12.342  1.00 65.84    -0.572 OA
ENDBRANCH  73  74
ENDBRANCH  72  73
ENDBRANCH  61  72
ENDBRANCH  55  56
ENDBRANCH   1  55
TORSDOF 27
ENDMDL
MODEL 2
REMARK VINA RESULT:      -7.9      6.165     11.207
REMARK  27 active torsions:
REMARK  status: ('A' for Active; 'I' for Inactive)
REMARK    1  A    between atoms: C1_1  and  O1_2 
REMARK    2  A    between atoms: S1_5  and  N2_7 
REMARK    3  A    between atoms: C2_6  and  N2_7 
REMARK    4  A    between atoms: S2_10  and  O6_22 
REMARK    5  A    between atoms: C3_11  and  O3_12 
REMARK    6  A    between atoms: C4_15  and  O4_16 
REMARK    7  A    between atoms: O4_16  and  C1_24 
REMARK    8  A    between atoms: C5_18  and  C6_21 
REMARK    9  A    between atoms: C6_21  and  O6_22 
REMARK   10  A    between atoms: C2_26  and  O2_27 
REMARK   11  A    between atoms: O2_27  and  S_40 
REMARK   12  A    between atoms: C3_29  and  O3_30 
REMARK   13  A    between atoms: C4_33  and  O4_34 
REMARK   14  A    between atoms: O4_34  and  C1_41 
REMARK   15  A    between atoms: C5_35  and  C6_37 
REMARK   16  A    between atoms: S1_43  and  N2_45 
REMARK   17  A    between atoms: C2_44  and  N2_45 
REMARK   18  A    between atoms: S2_48  and  O6_60 
REMARK   19  A    between atoms: C3_49  and  O3_50 
REMARK   20  A    between atoms: C4_53  and  O4_54 
REMARK   21  A    between atoms: O4_54  and  C1_62 
REMARK   22  A    between atoms: C5_56  and  C6_59 
REMARK   23  A    between atoms: C6_59  and  O6_60 
REMARK   24  A    between atoms: C2_64  and  O2_65 
REMARK   25  A    between atoms: O2_65  and  S_77 
REMARK   26  A    between atoms: C3_67  and  O3_68 
REMARK   27  A    between atoms: C5_72  and  C6_74 
ROOT
HETATM    1  C1  IDS C   2      33.133  74.294  18.272  1.00 40.81     0.294 C 
HETATM    2  C2  IDS C   2      34.259  74.422  19.301  1.00 40.20     0.231 C 
HETATM    3  C3  IDS C   2      34.673  73.053  19.833  1.00 39.01     0.185 C 
HETATM    4  C4  IDS C   2      33.487  72.343  20.515  1.00 37.65     0.195 C 
HETATM    5  C5  IDS C   2      32.165  72.944  20.021  1.00 35.99     0.257 C 
HETATM    6  O5  IDS C   2      32.248  73.200  18.599  1.00 39.00    -0.340 OA
ENDROOT
BRANCH   4   7
HETATM    7  O4  IDS C   2      33.528  70.924  20.220  1.00 35.98    -0.348 OA
BRANCH   7   8
HETATM    8  C1  SGN C   3      34.513  70.511  19.312  1.00 35.40     0.287 C 
HETATM    9  C2  SGN C   3      33.888  69.631  18.216  1.00 33.71     0.182 C 
HETATM   10  C3  SGN C   3      33.511  68.237  18.732  1.00 35.79     0.178 C 
HETATM   11  C4  SGN C   3      34.645  67.605  19.558  1.00 36.62     0.186 C 
HETATM   12  C5  SGN C   3      35.156  68.599  20.593  1.00 39.32     0.181 C 
HETATM   13  O5  SGN C   3      35.571  69.816  19.948  1.00 37.58    -0.349 OA
BRANCH   9  14
HETATM   14  N2  SGN C   3      32.698  70.273  17.701  1.00 29.28    -0.289 N 
ATOM     15  H2  SGN C   3      31.974  70.622  18.328  1.00  0.00     0.175 HD
BRANCH  14  16
HETATM   16  S1  SGN C   3      32.556  70.420  16.062  1.00 27.84     0.205 S 
HETATM   17  O1S SGN C   3      33.417  69.382  15.526  1.00 27.65    -0.578 OA
HETATM   18  O2S SGN C   3      33.045  71.794  15.747  1.00 27.72    -0.578 OA
HETATM   19  O3S SGN C   3      31.124  70.231  15.668  1.00 28.50    -0.578 OA
ENDBRANCH  14  16
ENDBRANCH   9  14
BRANCH  10  20
HETATM   20  O3  SGN C   3      33.181  67.395  17.631  1.00 34.89    -0.391 OA
ATOM     21  H3  SGN C   3      32.316  67.025  17.764  1.00  0.00     0.210 HD
ENDBRANCH  10  20
BRANCH  11  22
HETATM   22  O4  SGN C   3      34.140  66.447  20.246  1.00 37.13    -0.348 OA
BRANCH  22  23
HETATM   23  C1  UAP C   4      34.610  65.228  19.782  1.00 39.64     0.294 C 
HETATM   24  C2  UAP C   4      34.650  64.218  20.914  1.00 38.70     0.228 C 
HETATM   25  C3  UAP C   4      35.259  62.907  20.425  1.00 38.51     0.156 C 
HETATM   26  C4  UAP C   4      34.760  62.464  18.973  1.00 38.14     0.077 C 
HETATM   27  C5  UAP C   4      34.026  63.439  18.281  1.00 38.51     0.228 C 
HETATM   28  O5  UAP C   4      33.711  64.770  18.781  1.00 37.46    -0.343 OA
BRANCH  24  29
HETATM   29  O2  UAP C   4      35.497  64.713  22.001  1.00 40.54    -0.244 OA
BRANCH  29  30
HETATM   30  S   UAP C   4      34.933  64.846  23.493  1.00 40.49     0.252 S 
HETATM   31  O1S UAP C   4      36.037  65.347  24.325  1.00 40.89    -0.572 OA
HETATM   32  O2S UAP C   4      34.508  63.501  23.907  1.00 37.88    -0.572 OA
HETATM   33  O3S UAP C   4      33.806  65.791  23.446  1.00 37.47    -0.572 OA
ENDBRANCH  29  30
ENDBRANCH  24  29
BRANCH  25  34
HETATM   34  O3  UAP C   4      34.956  61.882  21.358  1.00 38.58    -0.393 OA
ATOM     35  H3  UAP C   4      34.401  62.239  22.041  1.00  0.00     0.210 HD
ENDBRANCH  25  34
BRANCH  27  36
HETATM   36  C6  UAP C   4      33.445  63.196  16.932  1.00 37.96     0.203 C 
HETATM   37  O6A UAP C   4      33.086  64.183  16.259  1.00 40.05    -0.646 OA
HETATM   38  O6B UAP C   4      33.341  62.015  16.537  1.00 36.71    -0.646 OA
ENDBRANCH  27  36
ENDBRANCH  22  23
ENDBRANCH  11  22
BRANCH  12  39
HETATM   39  C6  SGN C   3      36.326  68.105  21.398  1.00 42.65     0.227 C 
BRANCH  39  40
HETATM   40  O6  SGN C   3      36.037  68.466  22.767  1.00 51.09    -0.254 OA
BRANCH  40  41
HETATM   41  S2  SGN C   3      36.803  69.744  23.338  1.00 54.80     0.251 S 
HETATM   42  O4S SGN C   3      36.005  70.932  22.985  1.00 54.99    -0.572 OA
HETATM   43  O5S SGN C   3      38.146  69.764  22.685  1.00 53.99    -0.572 OA
HETATM   44  O6S SGN C   3      36.901  69.568  24.781  1.00 55.43    -0.572 OA
ENDBRANCH  40  41
ENDBRANCH  39  40
ENDBRANCH  12  39
ENDBRANCH   7   8
ENDBRANCH   4   7
BRANCH   3  45
HETATM   45  O3  IDS C   2      35.741  73.207  20.758  1.00 39.65    -0.390 OA
ATOM     46  H3  IDS C   2      36.569  73.139  20.299  1.00  0.00     0.210 HD
ENDBRANCH   3  45
BRANCH   5  47
HETATM   47  C6  IDS C   2      30.934  72.083  20.269  1.00 36.10     0.206 C 
HETATM   48  O6A IDS C   2      30.492  71.414  19.310  1.00 32.44    -0.646 OA
HETATM   49  O6B IDS C   2      30.436  72.074  21.420  1.00 33.44    -0.646 OA
ENDBRANCH   5  47
BRANCH   2  50
HETATM   50  O2  IDS C   2      35.422  75.042  18.681  1.00 43.59    -0.244 OA
BRANCH  50  51
HETATM   51  S   IDS C   2      35.662  76.611  18.848  1.00 44.11     0.252 S 
HETATM   52  O1S IDS C   2      35.093  77.270  17.623  1.00 44.48    -0.572 OA
HETATM   53  O2S IDS C   2      37.122  76.817  18.963  1.00 44.29    -0.572 OA
HETATM   54  O3S IDS C   2      34.965  77.019  20.054  1.00 44.74    -0.572 OA
ENDBRANCH  50  51
ENDBRANCH   2  50
BRANCH   1  55
HETATM   55  O4  SGN C   1      32.393  75.468  18.247  1.00 44.73    -0.348 OA
BRANCH  55  56
HETATM   56  C4  SGN C   1      30.956  75.357  18.333  1.00 48.25     0.186 C 
HETATM   57  C3  SGN C   1      30.453  76.088  19.584  1.00 48.43     0.178 C 
HETATM   58  C2  SGN C   1      28.925  76.108  19.601  1.00 48.58     0.181 C 
HETATM   59  C1  SGN C   1      28.356  76.669  18.299  1.00 50.40     0.283 C 
HETATM   60  O5  SGN C   1      28.869  75.935  17.180  1.00 50.82    -0.349 OA
HETATM   61  C5  SGN C   1      30.312  75.984  17.085  1.00 51.58     0.181 C 
BRANCH  57  62
HETATM   62  O3  SGN C   1      30.925  75.432  20.750  1.00 46.09    -0.391 OA
ATOM     63  H3  SGN C   1      30.791  75.996  21.503  1.00  0.00     0.210 HD
ENDBRANCH  57  62
BRANCH  58  64
HETATM   64  N2  SGN C   1      28.442  76.891  20.720  1.00 48.56    -0.289 N 
ATOM     65  H2  SGN C   1      28.478  77.910  20.735  1.00  0.00     0.175 HD
BRANCH  64  66
HETATM   66  S1  SGN C   1      27.827  75.997  21.969  1.00 47.67     0.205 S 
HETATM   67  O1S SGN C   1      28.443  76.520  23.208  1.00 47.59    -0.578 OA
HETATM   68  O2S SGN C   1      28.220  74.613  21.689  1.00 48.55    -0.578 OA
HETATM   69  O3S SGN C   1      26.360  76.188  21.945  1.00 47.08    -0.578 OA
ENDBRANCH  64  66
ENDBRANCH  58  64
BRANCH  59  70
HETATM   70  O1  SGN C   1      28.720  78.000  18.160  1.00 51.36    -0.369 OA
ATOM     71  H1  SGN C   1      27.947  78.533  18.017  1.00  0.00     0.212 HD
ENDBRANCH  59  70
BRANCH  61  72
HETATM   72  C6  SGN C   1      30.685  75.265  15.814  1.00 55.48     0.227 C 
BRANCH  72  73
HETATM   73  O6  SGN C   1      30.760  76.212  14.727  1.00 61.59    -0.254 OA
BRANCH  73  74
HETATM   74  S2  SGN C   1      29.807  75.898  13.489  1.00 65.98     0.251 S 
HETATM   75  O4S SGN C   1      30.333  76.704  12.298  1.00 65.09    -0.572 OA
HETATM   76  O5S SGN C   1      28.473  76.318  13.877  1.00 65.58    -0.572 OA
HETATM   77  O6S SGN C   1      29.881  74.361  13.229  1.00 65.84    -0.572 OA
ENDBRANCH  73  74
ENDBRANCH  72  73
ENDBRANCH  61  72
ENDBRANCH  55  56
ENDBRANCH   1  55
TORSDOF 27
ENDMDL
MODEL 3
REMARK VINA RESULT:      -7.8      6.079     11.284
REMARK  27 active torsions:
REMARK  status: ('A' for Active; 'I' for Inactive)
REMARK    1  A    between atoms: C1_1  and  O1_2 
REMARK    2  A    between atoms: S1_5  and  N2_7 
REMARK    3  A    between atoms: C2_6  and  N2_7 
REMARK    4  A    between atoms: S2_10  and  O6_22 
REMARK    5  A    between atoms: C3_11  and  O3_12 
REMARK    6  A    between atoms: C4_15  and  O4_16 
REMARK    7  A    between atoms: O4_16  and  C1_24 
REMARK    8  A    between atoms: C5_18  and  C6_21 
REMARK    9  A    between atoms: C6_21  and  O6_22 
REMARK   10  A    between atoms: C2_26  and  O2_27 
REMARK   11  A    between atoms: O2_27  and  S_40 
REMARK   12  A    between atoms: C3_29  and  O3_30 
REMARK   13  A    between atoms: C4_33  and  O4_34 
REMARK   14  A    between atoms: O4_34  and  C1_41 
REMARK   15  A    between atoms: C5_35  and  C6_37 
REMARK   16  A    between atoms: S1_43  and  N2_45 
REMARK   17  A    between atoms: C2_44  and  N2_45 
REMARK   18  A    between atoms: S2_48  and  O6_60 
REMARK   19  A    between atoms: C3_49  and  O3_50 
REMARK   20  A    between atoms: C4_53  and  O4_54 
REMARK   21  A    between atoms: O4_54  and  C1_62 
REMARK   22  A    between atoms: C5_56  and  C6_59 
REMARK   23  A    between atoms: C6_59  and  O6_60 
REMARK   24  A    between atoms: C2_64  and  O2_65 
REMARK   25  A    between atoms: O2_65  and  S_77 
REMARK   26  A    between atoms: C3_67  and  O3_68 
REMARK   27  A    between atoms: C5_72  and  C6_74 
ROOT
HETATM    1  C1  IDS C   2      33.146  74.752  18.264  1.00 40.81     0.294 C 
HETATM    2  C2  IDS C   2      34.312  74.859  19.250  1.00 40.20     0.231 C 
HETATM    3  C3  IDS C   2      34.880  73.481  19.578  1.00 39.01     0.185 C 
HETATM    4  C4  IDS C   2      33.805  72.577  20.214  1.00 37.65     0.195 C 
HETATM    5  C5  IDS C   2      32.408  73.102  19.862  1.00 35.99     0.257 C 
HETATM    6  O5  IDS C   2      32.386  73.543  18.483  1.00 39.00    -0.340 OA
ENDROOT
BRANCH   4   7
HETATM    7  O4  IDS C   2      33.960  71.218  19.734  1.00 35.98    -0.348 OA
BRANCH   7   8
HETATM    8  C1  SGN C   3      35.278  70.762  19.588  1.00 35.40     0.287 C 
HETATM    9  C2  SGN C   3      35.282  69.286  19.153  1.00 33.71     0.182 C 
HETATM   10  C3  SGN C   3      34.881  68.341  20.292  1.00 35.79     0.178 C 
HETATM   11  C4  SGN C   3      35.618  68.674  21.601  1.00 36.62     0.186 C 
HETATM   12  C5  SGN C   3      35.524  70.167  21.889  1.00 39.32     0.181 C 
HETATM   13  O5  SGN C   3      36.035  70.920  20.775  1.00 37.58    -0.349 OA
BRANCH   9  14
HETATM   14  N2  SGN C   3      34.362  69.104  18.052  1.00 29.28    -0.289 N 
ATOM     15  H2  SGN C   3      33.371  69.322  18.151  1.00  0.00     0.175 HD
BRANCH  14  16
HETATM   16  S1  SGN C   3      34.974  68.530  16.629  1.00 27.84     0.205 S 
HETATM   17  O1S SGN C   3      35.347  67.158  16.919  1.00 27.65    -0.578 OA
HETATM   18  O2S SGN C   3      36.152  69.397  16.330  1.00 27.72    -0.578 OA
HETATM   19  O3S SGN C   3      33.926  68.623  15.563  1.00 28.50    -0.578 OA
ENDBRANCH  14  16
ENDBRANCH   9  14
BRANCH  10  20
HETATM   20  O3  SGN C   3      35.148  66.994  19.909  1.00 34.89    -0.391 OA
ATOM     21  H3  SGN C   3      35.396  66.491  20.676  1.00  0.00     0.210 HD
ENDBRANCH  10  20
BRANCH  11  22
HETATM   22  O4  SGN C   3      35.001  67.959  22.686  1.00 37.13    -0.348 OA
BRANCH  22  23
HETATM   23  C1  UAP C   4      35.782  66.972  23.266  1.00 39.64     0.294 C 
HETATM   24  C2  UAP C   4      35.471  65.624  22.640  1.00 38.70     0.228 C 
HETATM   25  C3  UAP C   4      36.260  64.524  23.345  1.00 38.51     0.156 C 
HETATM   26  C4  UAP C   4      37.772  64.924  23.678  1.00 38.14     0.077 C 
HETATM   27  C5  UAP C   4      38.077  66.279  23.481  1.00 38.51     0.228 C 
HETATM   28  O5  UAP C   4      37.144  67.296  23.019  1.00 37.46    -0.343 OA
BRANCH  24  29
HETATM   29  O2  UAP C   4      34.050  65.311  22.799  1.00 40.54    -0.244 OA
BRANCH  29  30
HETATM   30  S   UAP C   4      33.285  64.385  21.741  1.00 40.49     0.252 S 
HETATM   31  O1S UAP C   4      31.983  65.017  21.482  1.00 40.89    -0.572 OA
HETATM   32  O2S UAP C   4      33.132  63.063  22.366  1.00 37.88    -0.572 OA
HETATM   33  O3S UAP C   4      34.121  64.330  20.531  1.00 37.47    -0.572 OA
ENDBRANCH  29  30
ENDBRANCH  24  29
BRANCH  25  34
HETATM   34  O3  UAP C   4      36.251  63.359  22.537  1.00 38.58    -0.393 OA
ATOM     35  H3  UAP C   4      37.136  63.018  22.476  1.00  0.00     0.210 HD
ENDBRANCH  25  34
BRANCH  27  36
HETATM   36  C6  UAP C   4      39.443  66.831  23.700  1.00 37.96     0.203 C 
HETATM   37  O6A UAP C   4      40.359  66.037  23.994  1.00 40.05    -0.646 OA
HETATM   38  O6B UAP C   4      39.608  68.064  23.582  1.00 36.71    -0.646 OA
ENDBRANCH  27  36
ENDBRANCH  22  23
ENDBRANCH  11  22
BRANCH  12  39
HETATM   39  C6  SGN C   3      36.286  70.610  23.108  1.00 42.65     0.227 C 
BRANCH  39  40
HETATM   40  O6  SGN C   3      36.664  71.980  22.855  1.00 51.09    -0.254 OA
BRANCH  40  41
HETATM   41  S2  SGN C   3      38.226  72.305  22.910  1.00 54.80     0.251 S 
HETATM   42  O4S SGN C   3      38.914  71.087  23.376  1.00 54.99    -0.572 OA
HETATM   43  O5S SGN C   3      38.393  73.437  23.868  1.00 53.99    -0.572 OA
HETATM   44  O6S SGN C   3      38.629  72.669  21.558  1.00 55.43    -0.572 OA
ENDBRANCH  40  41
ENDBRANCH  39  40
ENDBRANCH  12  39
ENDBRANCH   7   8
ENDBRANCH   4   7
BRANCH   3  45
HETATM   45  O3  IDS C   2      35.980  73.622  20.468  1.00 39.65    -0.390 OA
ATOM     46  H3  IDS C   2      36.792  73.558  19.980  1.00  0.00     0.210 HD
ENDBRANCH   3  45
BRANCH   5  47
HETATM   47  C6  IDS C   2      31.278  72.099  20.050  1.00 36.10     0.206 C 
HETATM   48  O6A IDS C   2      30.763  72.011  21.186  1.00 32.44    -0.646 OA
HETATM   49  O6B IDS C   2      30.909  71.425  19.058  1.00 33.44    -0.646 OA
ENDBRANCH   5  47
BRANCH   2  50
HETATM   50  O2  IDS C   2      35.377  75.664  18.666  1.00 43.59    -0.244 OA
BRANCH  50  51
HETATM   51  S   IDS C   2      35.463  77.222  19.003  1.00 44.11     0.252 S 
HETATM   52  O1S IDS C   2      34.837  77.952  17.848  1.00 44.48    -0.572 OA
HETATM   53  O2S IDS C   2      36.895  77.553  19.161  1.00 44.29    -0.572 OA
HETATM   54  O3S IDS C   2      34.724  77.427  20.236  1.00 44.74    -0.572 OA
ENDBRANCH  50  51
ENDBRANCH   2  50
BRANCH   1  55
HETATM   55  O4  SGN C   1      32.301  75.841  18.426  1.00 44.73    -0.348 OA
BRANCH  55  56
HETATM   56  C4  SGN C   1      30.879  75.588  18.448  1.00 48.25     0.186 C 
HETATM   57  C3  SGN C   1      30.255  76.247  19.684  1.00 48.43     0.178 C 
HETATM   58  C2  SGN C   1      28.733  76.118  19.635  1.00 48.58     0.181 C 
HETATM   59  C1  SGN C   1      28.167  76.641  18.316  1.00 50.40     0.283 C 
HETATM   60  O5  SGN C   1      28.796  75.978  17.212  1.00 50.82    -0.349 OA
HETATM   61  C5  SGN C   1      30.230  76.169  17.181  1.00 51.58     0.181 C 
BRANCH  57  62
HETATM   62  O3  SGN C   1      30.740  75.623  20.863  1.00 46.09    -0.391 OA
ATOM     63  H3  SGN C   1      30.894  74.702  20.689  1.00  0.00     0.210 HD
ENDBRANCH  57  62
BRANCH  58  64
HETATM   64  N2  SGN C   1      28.129  76.832  20.741  1.00 48.56    -0.289 N 
ATOM     65  H2  SGN C   1      27.937  77.834  20.710  1.00  0.00     0.175 HD
BRANCH  64  66
HETATM   66  S1  SGN C   1      27.775  75.893  22.056  1.00 47.67     0.205 S 
HETATM   67  O1S SGN C   1      26.325  76.041  22.307  1.00 47.59    -0.578 OA
HETATM   68  O2S SGN C   1      28.591  76.430  23.149  1.00 48.55    -0.578 OA
HETATM   69  O3S SGN C   1      28.147  74.507  21.698  1.00 47.08    -0.578 OA
ENDBRANCH  64  66
ENDBRANCH  58  64
BRANCH  59  70
HETATM   70  O1  SGN C   1      28.404  78.003  18.208  1.00 51.36    -0.369 OA
ATOM     71  H1  SGN C   1      27.605  78.451  17.956  1.00  0.00     0.212 HD
ENDBRANCH  59  70
BRANCH  61  72
HETATM   72  C6  SGN C   1      30.725  75.508  15.919  1.00 55.48     0.227 C 
BRANCH  72  73
HETATM   73  O6  SGN C   1      30.745  76.473  14.845  1.00 61.59    -0.254 OA
BRANCH  73  74
HETATM   74  S2  SGN C   1      29.688  76.213  13.681  1.00 65.98     0.251 S 
HETATM   75  O4S SGN C   1      29.559  74.696  13.520  1.00 65.09    -0.572 OA
HETATM   76  O5S SGN C   1      30.225  76.839  12.487  1.00 65.58    -0.572 OA
HETATM   77  O6S SGN C   1      28.343  76.867  14.126  1.00 65.84    -0.572 OA
ENDBRANCH  73  74
ENDBRANCH  72  73
ENDBRANCH  61  72
ENDBRANCH  55  56
ENDBRANCH   1  55
TORSDOF 27
ENDMDL
MODEL 4
REMARK VINA RESULT:      -7.6      6.141     10.967
REMARK  27 active torsions:
REMARK  status: ('A' for Active; 'I' for Inactive)
REMARK    1  A    between atoms: C1_1  and  O1_2 
REMARK    2  A    between atoms: S1_5  and  N2_7 
REMARK    3  A    between atoms: C2_6  and  N2_7 
REMARK    4  A    between atoms: S2_10  and  O6_22 
REMARK    5  A    between atoms: C3_11  and  O3_12 
REMARK    6  A    between atoms: C4_15  and  O4_16 
REMARK    7  A    between atoms: O4_16  and  C1_24 
REMARK    8  A    between atoms: C5_18  and  C6_21 
REMARK    9  A    between atoms: C6_21  and  O6_22 
REMARK   10  A    between atoms: C2_26  and  O2_27 
REMARK   11  A    between atoms: O2_27  and  S_40 
REMARK   12  A    between atoms: C3_29  and  O3_30 
REMARK   13  A    between atoms: C4_33  and  O4_34 
REMARK   14  A    between atoms: O4_34  and  C1_41 
REMARK   15  A    between atoms: C5_35  and  C6_37 
REMARK   16  A    between atoms: S1_43  and  N2_45 
REMARK   17  A    between atoms: C2_44  and  N2_45 
REMARK   18  A    between atoms: S2_48  and  O6_60 
REMARK   19  A    between atoms: C3_49  and  O3_50 
REMARK   20  A    between atoms: C4_53  and  O4_54 
REMARK   21  A    between atoms: O4_54  and  C1_62 
REMARK   22  A    between atoms: C5_56  and  C6_59 
REMARK   23  A    between atoms: C6_59  and  O6_60 
REMARK   24  A    between atoms: C2_64  and  O2_65 
REMARK   25  A    between atoms: O2_65  and  S_77 
REMARK   26  A    between atoms: C3_67  and  O3_68 
REMARK   27  A    between atoms: C5_72  and  C6_74 
ROOT
HETATM    1  C1  IDS C   2      33.041  74.767  18.328  1.00 40.81     0.294 C 
HETATM    2  C2  IDS C   2      34.168  74.898  19.357  1.00 40.20     0.231 C 
HETATM    3  C3  IDS C   2      34.736  73.530  19.725  1.00 39.01     0.185 C 
HETATM    4  C4  IDS C   2      33.646  72.623  20.331  1.00 37.65     0.195 C 
HETATM    5  C5  IDS C   2      32.258  73.131  19.919  1.00 35.99     0.257 C 
HETATM    6  O5  IDS C   2      32.285  73.554  18.535  1.00 39.00    -0.340 OA
ENDROOT
BRANCH   4   7
HETATM    7  O4  IDS C   2      33.831  71.260  19.875  1.00 35.98    -0.348 OA
BRANCH   7   8
HETATM    8  C1  SGN C   3      35.092  70.954  19.342  1.00 35.40     0.287 C 
HETATM    9  C2  SGN C   3      35.042  69.604  18.605  1.00 33.71     0.182 C 
HETATM   10  C3  SGN C   3      34.952  68.417  19.570  1.00 35.79     0.178 C 
HETATM   11  C4  SGN C   3      35.965  68.533  20.721  1.00 36.62     0.186 C 
HETATM   12  C5  SGN C   3      35.893  69.922  21.343  1.00 39.32     0.181 C 
HETATM   13  O5  SGN C   3      36.101  70.927  20.335  1.00 37.58    -0.349 OA
BRANCH   9  14
HETATM   14  N2  SGN C   3      33.895  69.577  17.724  1.00 29.28    -0.289 N 
ATOM     15  H2  SGN C   3      33.006  69.179  18.028  1.00  0.00     0.175 HD
BRANCH  14  16
HETATM   16  S1  SGN C   3      34.075  70.213  16.211  1.00 27.84     0.205 S 
HETATM   17  O1S SGN C   3      33.243  69.380  15.364  1.00 27.65    -0.578 OA
HETATM   18  O2S SGN C   3      35.529  70.081  15.901  1.00 27.72    -0.578 OA
HETATM   19  O3S SGN C   3      33.631  71.643  16.216  1.00 28.50    -0.578 OA
ENDBRANCH  14  16
ENDBRANCH   9  14
BRANCH  10  20
HETATM   20  O3  SGN C   3      35.165  67.204  18.852  1.00 34.89    -0.391 OA
ATOM     21  H3  SGN C   3      35.224  66.479  19.464  1.00  0.00     0.210 HD
ENDBRANCH  10  20
BRANCH  11  22
HETATM   22  O4  SGN C   3      35.645  67.562  21.733  1.00 37.13    -0.348 OA
BRANCH  22  23
HETATM   23  C1  UAP C   4      35.993  66.254  21.432  1.00 39.64     0.294 C 
HETATM   24  C2  UAP C   4      36.821  65.662  22.558  1.00 38.70     0.228 C 
HETATM   25  C3  UAP C   4      37.286  64.258  22.183  1.00 38.51     0.156 C 
HETATM   26  C4  UAP C   4      36.165  63.375  21.462  1.00 38.14     0.077 C 
HETATM   27  C5  UAP C   4      35.014  64.083  21.084  1.00 38.51     0.228 C 
HETATM   28  O5  UAP C   4      34.792  65.507  21.295  1.00 37.46    -0.343 OA
BRANCH  24  29
HETATM   29  O2  UAP C   4      38.020  66.472  22.781  1.00 40.54    -0.244 OA
BRANCH  29  30
HETATM   30  S   UAP C   4      38.364  67.053  24.232  1.00 40.49     0.252 S 
HETATM   31  O1S UAP C   4      37.107  67.561  24.800  1.00 40.89    -0.572 OA
HETATM   32  O2S UAP C   4      39.345  68.131  24.036  1.00 37.88    -0.572 OA
HETATM   33  O3S UAP C   4      38.916  65.942  25.024  1.00 37.47    -0.572 OA
ENDBRANCH  29  30
ENDBRANCH  24  29
BRANCH  25  34
HETATM   34  O3  UAP C   4      37.727  63.589  23.354  1.00 38.58    -0.393 OA
ATOM     35  H3  UAP C   4      37.513  62.666  23.283  1.00  0.00     0.210 HD
ENDBRANCH  25  34
BRANCH  27  36
HETATM   36  C6  UAP C   4      33.846  63.424  20.437  1.00 37.96     0.203 C 
HETATM   37  O6A UAP C   4      33.192  62.598  21.104  1.00 40.05    -0.646 OA
HETATM   38  O6B UAP C   4      33.575  63.728  19.256  1.00 36.71    -0.646 OA
ENDBRANCH  27  36
ENDBRANCH  22  23
ENDBRANCH  11  22
BRANCH  12  39
HETATM   39  C6  SGN C   3      36.905  70.166  22.427  1.00 42.65     0.227 C 
BRANCH  39  40
HETATM   40  O6  SGN C   3      36.909  71.594  22.644  1.00 51.09    -0.254 OA
BRANCH  40  41
HETATM   41  S2  SGN C   3      38.341  72.295  22.717  1.00 54.80     0.251 S 
HETATM   42  O4S SGN C   3      38.588  72.932  21.410  1.00 54.99    -0.572 OA
HETATM   43  O5S SGN C   3      39.331  71.215  23.002  1.00 53.99    -0.572 OA
HETATM   44  O6S SGN C   3      38.277  73.276  23.792  1.00 55.43    -0.572 OA
ENDBRANCH  40  41
ENDBRANCH  39  40
ENDBRANCH  12  39
ENDBRANCH   7   8
ENDBRANCH   4   7
BRANCH   3  45
HETATM   45  O3  IDS C   2      35.799  73.693  20.653  1.00 39.65    -0.390 OA
ATOM     46  H3  IDS C   2      36.540  74.098  20.219  1.00  0.00     0.210 HD
ENDBRANCH   3  45
BRANCH   5  47
HETATM   47  C6  IDS C   2      31.131  72.119  20.077  1.00 36.10     0.206 C 
HETATM   48  O6A IDS C   2      30.567  72.048  21.191  1.00 32.44    -0.646 OA
HETATM   49  O6B IDS C   2      30.814  71.421  19.084  1.00 33.44    -0.646 OA
ENDBRANCH   5  47
BRANCH   2  50
HETATM   50  O2  IDS C   2      35.246  75.706  18.803  1.00 43.59    -0.244 OA
BRANCH  50  51
HETATM   51  S   IDS C   2      35.305  77.269  19.123  1.00 44.11     0.252 S 
HETATM   52  O1S IDS C   2      34.710  77.977  17.939  1.00 44.48    -0.572 OA
HETATM   53  O2S IDS C   2      36.728  77.617  19.323  1.00 44.29    -0.572 OA
HETATM   54  O3S IDS C   2      34.525  77.482  20.329  1.00 44.74    -0.572 OA
ENDBRANCH  50  51
ENDBRANCH   2  50
BRANCH   1  55
HETATM   55  O4  SGN C   1      32.181  75.849  18.444  1.00 44.73    -0.348 OA
BRANCH  55  56
HETATM   56  C4  SGN C   1      30.762  75.579  18.460  1.00 48.25     0.186 C 
HETATM   57  C3  SGN C   1      30.117  76.261  19.672  1.00 48.43     0.178 C 
HETATM   58  C2  SGN C   1      28.598  76.111  19.612  1.00 48.58     0.181 C 
HETATM   59  C1  SGN C   1      28.038  76.593  18.275  1.00 50.40     0.283 C 
HETATM   60  O5  SGN C   1      28.687  75.910  17.194  1.00 50.82    -0.349 OA
HETATM   61  C5  SGN C   1      30.118  76.119  17.172  1.00 51.58     0.181 C 
BRANCH  57  62
HETATM   62  O3  SGN C   1      30.599  75.674  20.871  1.00 46.09    -0.391 OA
ATOM     63  H3  SGN C   1      31.549  75.697  20.872  1.00  0.00     0.210 HD
ENDBRANCH  57  62
BRANCH  58  64
HETATM   64  N2  SGN C   1      27.973  76.845  20.693  1.00 48.56    -0.289 N 
ATOM     65  H2  SGN C   1      27.738  77.835  20.623  1.00  0.00     0.175 HD
BRANCH  64  66
HETATM   66  S1  SGN C   1      27.674  75.949  22.051  1.00 47.67     0.205 S 
HETATM   67  O1S SGN C   1      28.122  74.570  21.757  1.00 47.59    -0.578 OA
HETATM   68  O2S SGN C   1      26.226  76.034  22.263  1.00 48.55    -0.578 OA
HETATM   69  O3S SGN C   1      28.446  76.571  23.148  1.00 47.08    -0.578 OA
ENDBRANCH  64  66
ENDBRANCH  58  64
BRANCH  59  70
HETATM   70  O1  SGN C   1      28.259  77.955  18.134  1.00 51.36    -0.369 OA
ATOM     71  H1  SGN C   1      28.307  78.181  17.213  1.00  0.00     0.212 HD
ENDBRANCH  59  70
BRANCH  61  72
HETATM   72  C6  SGN C   1      30.634  75.433  15.931  1.00 55.48     0.227 C 
BRANCH  72  73
HETATM   73  O6  SGN C   1      30.661  76.374  14.836  1.00 61.59    -0.254 OA
BRANCH  73  74
HETATM   74  S2  SGN C   1      29.692  76.024  13.620  1.00 65.98     0.251 S 
HETATM   75  O4S SGN C   1      30.207  76.787  12.398  1.00 65.09    -0.572 OA
HETATM   76  O5S SGN C   1      28.364  76.463  14.010  1.00 65.58    -0.572 OA
HETATM   77  O6S SGN C   1      29.755  74.478  13.411  1.00 65.84    -0.572 OA
ENDBRANCH  73  74
ENDBRANCH  72  73
ENDBRANCH  61  72
ENDBRANCH  55  56
ENDBRANCH   1  55
TORSDOF 27
ENDMDL
MODEL 5
REMARK VINA RESULT:      -7.6      4.192     11.642
REMARK  27 active torsions:
REMARK  status: ('A' for Active; 'I' for Inactive)
REMARK    1  A    between atoms: C1_1  and  O1_2 
REMARK    2  A    between atoms: S1_5  and  N2_7 
REMARK    3  A    between atoms: C2_6  and  N2_7 
REMARK    4  A    between atoms: S2_10  and  O6_22 
REMARK    5  A    between atoms: C3_11  and  O3_12 
REMARK    6  A    between atoms: C4_15  and  O4_16 
REMARK    7  A    between atoms: O4_16  and  C1_24 
REMARK    8  A    between atoms: C5_18  and  C6_21 
REMARK    9  A    between atoms: C6_21  and  O6_22 
REMARK   10  A    between atoms: C2_26  and  O2_27 
REMARK   11  A    between atoms: O2_27  and  S_40 
REMARK   12  A    between atoms: C3_29  and  O3_30 
REMARK   13  A    between atoms: C4_33  and  O4_34 
REMARK   14  A    between atoms: O4_34  and  C1_41 
REMARK   15  A    between atoms: C5_35  and  C6_37 
REMARK   16  A    between atoms: S1_43  and  N2_45 
REMARK   17  A    between atoms: C2_44  and  N2_45 
REMARK   18  A    between atoms: S2_48  and  O6_60 
REMARK   19  A    between atoms: C3_49  and  O3_50 
REMARK   20  A    between atoms: C4_53  and  O4_54 
REMARK   21  A    between atoms: O4_54  and  C1_62 
REMARK   22  A    between atoms: C5_56  and  C6_59 
REMARK   23  A    between atoms: C6_59  and  O6_60 
REMARK   24  A    between atoms: C2_64  and  O2_65 
REMARK   25  A    between atoms: O2_65  and  S_77 
REMARK   26  A    between atoms: C3_67  and  O3_68 
REMARK   27  A    between atoms: C5_72  and  C6_74 
ROOT
HETATM    1  C1  IDS C   2      29.215  78.653  15.601  1.00 40.81     0.294 C 
HETATM    2  C2  IDS C   2      29.329  78.720  14.076  1.00 40.20     0.231 C 
HETATM    3  C3  IDS C   2      28.504  79.875  13.515  1.00 39.01     0.185 C 
HETATM    4  C4  IDS C   2      27.012  79.712  13.870  1.00 37.65     0.195 C 
HETATM    5  C5  IDS C   2      26.863  78.776  15.077  1.00 35.99     0.257 C 
HETATM    6  O5  IDS C   2      27.902  79.060  16.045  1.00 39.00    -0.340 OA
ENDROOT
BRANCH   4   7
HETATM    7  O4  IDS C   2      26.434  81.007  14.172  1.00 35.98    -0.348 OA
BRANCH   7   8
HETATM    8  C1  SGN C   3      26.368  81.916  13.106  1.00 35.40     0.287 C 
HETATM    9  C2  SGN C   3      25.463  83.104  13.479  1.00 33.71     0.182 C 
HETATM   10  C3  SGN C   3      23.978  82.723  13.497  1.00 35.79     0.178 C 
HETATM   11  C4  SGN C   3      23.576  81.920  12.248  1.00 36.62     0.186 C 
HETATM   12  C5  SGN C   3      24.567  80.786  12.014  1.00 39.32     0.181 C 
HETATM   13  O5  SGN C   3      25.903  81.309  11.913  1.00 37.58    -0.349 OA
BRANCH   9  14
HETATM   14  N2  SGN C   3      25.832  83.599  14.787  1.00 29.28    -0.289 N 
ATOM     15  H2  SGN C   3      25.331  83.302  15.624  1.00  0.00     0.175 HD
BRANCH  14  16
HETATM   16  S1  SGN C   3      27.093  84.662  14.876  1.00 27.84     0.205 S 
HETATM   17  O1S SGN C   3      26.971  85.263  16.191  1.00 27.65    -0.578 OA
HETATM   18  O2S SGN C   3      26.861  85.639  13.772  1.00 27.72    -0.578 OA
HETATM   19  O3S SGN C   3      28.382  83.920  14.707  1.00 28.50    -0.578 OA
ENDBRANCH  14  16
ENDBRANCH   9  14
BRANCH  10  20
HETATM   20  O3  SGN C   3      23.186  83.904  13.595  1.00 34.89    -0.391 OA
ATOM     21  H3  SGN C   3      23.039  84.260  12.726  1.00  0.00     0.210 HD
ENDBRANCH  10  20
BRANCH  11  22
HETATM   22  O4  SGN C   3      22.270  81.352  12.452  1.00 37.13    -0.348 OA
BRANCH  22  23
HETATM   23  C1  UAP C   4      21.213  82.110  11.975  1.00 39.64     0.294 C 
HETATM   24  C2  UAP C   4      20.228  81.225  11.233  1.00 38.70     0.228 C 
HETATM   25  C3  UAP C   4      19.115  82.074  10.625  1.00 38.51     0.156 C 
HETATM   26  C4  UAP C   4      18.582  83.230  11.592  1.00 38.14     0.077 C 
HETATM   27  C5  UAP C   4      19.355  83.434  12.744  1.00 38.51     0.228 C 
HETATM   28  O5  UAP C   4      20.560  82.694  13.095  1.00 37.46    -0.343 OA
BRANCH  24  29
HETATM   29  O2  UAP C   4      20.902  80.538  10.130  1.00 40.54    -0.244 OA
BRANCH  29  30
HETATM   30  S   UAP C   4      20.774  78.953   9.944  1.00 40.49     0.252 S 
HETATM   31  O1S UAP C   4      21.703  78.571   8.870  1.00 40.89    -0.572 OA
HETATM   32  O2S UAP C   4      19.377  78.680   9.575  1.00 37.88    -0.572 OA
HETATM   33  O3S UAP C   4      21.136  78.336  11.230  1.00 37.47    -0.572 OA
ENDBRANCH  29  30
ENDBRANCH  24  29
BRANCH  25  34
HETATM   34  O3  UAP C   4      18.034  81.229  10.265  1.00 38.58    -0.393 OA
ATOM     35  H3  UAP C   4      18.081  81.047   9.334  1.00  0.00     0.210 HD
ENDBRANCH  25  34
BRANCH  27  36
HETATM   36  C6  UAP C   4      18.995  84.439  13.783  1.00 37.96     0.203 C 
HETATM   37  O6A UAP C   4      18.321  85.429  13.435  1.00 40.05    -0.646 OA
HETATM   38  O6B UAP C   4      19.386  84.246  14.954  1.00 36.71    -0.646 OA
ENDBRANCH  27  36
ENDBRANCH  22  23
ENDBRANCH  11  22
BRANCH  12  39
HETATM   39  C6  SGN C   3      24.309  79.989  10.765  1.00 42.65     0.227 C 
BRANCH  39  40
HETATM   40  O6  SGN C   3      25.601  79.508  10.335  1.00 51.09    -0.254 OA
BRANCH  40  41
HETATM   41  S2  SGN C   3      25.859  79.484   8.760  1.00 54.80     0.251 S 
HETATM   42  O4S SGN C   3      27.266  79.099   8.549  1.00 54.99    -0.572 OA
HETATM   43  O5S SGN C   3      25.581  80.864   8.262  1.00 53.99    -0.572 OA
HETATM   44  O6S SGN C   3      24.940  78.504   8.196  1.00 55.43    -0.572 OA
ENDBRANCH  40  41
ENDBRANCH  39  40
ENDBRANCH  12  39
ENDBRANCH   7   8
ENDBRANCH   4   7
BRANCH   3  45
HETATM   45  O3  IDS C   2      28.660  79.927  12.103  1.00 39.65    -0.390 OA
ATOM     46  H3  IDS C   2      27.872  79.603  11.685  1.00  0.00     0.210 HD
ENDBRANCH   3  45
BRANCH   5  47
HETATM   47  C6  IDS C   2      25.522  78.860  15.793  1.00 36.10     0.206 C 
HETATM   48  O6A IDS C   2      24.730  79.761  15.439  1.00 32.44    -0.646 OA
HETATM   49  O6B IDS C   2      25.271  78.017  16.688  1.00 33.44    -0.646 OA
ENDBRANCH   5  47
BRANCH   2  50
HETATM   50  O2  IDS C   2      30.721  78.928  13.697  1.00 43.59    -0.244 OA
BRANCH  50  51
HETATM   51  S   IDS C   2      31.366  78.032  12.544  1.00 44.11     0.252 S 
HETATM   52  O1S IDS C   2      30.390  76.926  12.256  1.00 44.48    -0.572 OA
HETATM   53  O2S IDS C   2      32.651  77.519  13.062  1.00 44.29    -0.572 OA
HETATM   54  O3S IDS C   2      31.556  78.898  11.394  1.00 44.74    -0.572 OA
ENDBRANCH  50  51
ENDBRANCH   2  50
BRANCH   1  55
HETATM   55  O4  SGN C   1      29.440  77.351  16.025  1.00 44.73    -0.348 OA
BRANCH  55  56
HETATM   56  C4  SGN C   1      29.827  77.152  17.402  1.00 48.25     0.186 C 
HETATM   57  C3  SGN C   1      28.721  76.396  18.148  1.00 48.43     0.178 C 
HETATM   58  C2  SGN C   1      29.186  76.046  19.561  1.00 48.58     0.181 C 
HETATM   59  C1  SGN C   1      30.523  75.307  19.545  1.00 50.40     0.283 C 
HETATM   60  O5  SGN C   1      31.502  76.075  18.835  1.00 50.82    -0.349 OA
HETATM   61  C5  SGN C   1      31.129  76.335  17.462  1.00 51.58     0.181 C 
BRANCH  57  62
HETATM   62  O3  SGN C   1      27.553  77.198  18.225  1.00 46.09    -0.391 OA
ATOM     63  H3  SGN C   1      27.419  77.638  17.392  1.00  0.00     0.210 HD
ENDBRANCH  57  62
BRANCH  58  64
HETATM   64  N2  SGN C   1      28.191  75.236  20.235  1.00 48.56    -0.289 N 
ATOM     65  H2  SGN C   1      27.693  74.476  19.771  1.00  0.00     0.175 HD
BRANCH  64  66
HETATM   66  S1  SGN C   1      27.928  75.645  21.816  1.00 47.67     0.205 S 
HETATM   67  O1S SGN C   1      28.960  76.643  22.174  1.00 47.59    -0.578 OA
HETATM   68  O2S SGN C   1      28.071  74.396  22.571  1.00 48.55    -0.578 OA
HETATM   69  O3S SGN C   1      26.558  76.198  21.888  1.00 47.08    -0.578 OA
ENDBRANCH  64  66
ENDBRANCH  58  64
BRANCH  59  70
HETATM   70  O1  SGN C   1      30.377  74.081  18.913  1.00 51.36    -0.369 OA
ATOM     71  H1  SGN C   1      31.210  73.805  18.548  1.00  0.00     0.212 HD
ENDBRANCH  59  70
BRANCH  61  72
HETATM   72  C6  SGN C   1      32.295  77.052  16.827  1.00 55.48     0.227 C 
BRANCH  72  73
HETATM   73  O6  SGN C   1      33.013  77.794  17.835  1.00 61.59    -0.254 OA
BRANCH  73  74
HETATM   74  S2  SGN C   1      34.543  77.386  18.013  1.00 65.98     0.251 S 
HETATM   75  O4S SGN C   1      35.140  78.323  19.067  1.00 65.09    -0.572 OA
HETATM   76  O5S SGN C   1      35.172  77.561  16.717  1.00 65.58    -0.572 OA
HETATM   77  O6S SGN C   1      34.572  75.896  18.477  1.00 65.84    -0.572 OA
ENDBRANCH  73  74
ENDBRANCH  72  73
ENDBRANCH  61  72
ENDBRANCH  55  56
ENDBRANCH   1  55
TORSDOF 27
ENDMDL
MODEL 6
REMARK VINA RESULT:      -7.5      6.130     11.041
REMARK  27 active torsions:
REMARK  status: ('A' for Active; 'I' for Inactive)
REMARK    1  A    between atoms: C1_1  and  O1_2 
REMARK    2  A    between atoms: S1_5  and  N2_7 
REMARK    3  A    between atoms: C2_6  and  N2_7 
REMARK    4  A    between atoms: S2_10  and  O6_22 
REMARK    5  A    between atoms: C3_11  and  O3_12 
REMARK    6  A    between atoms: C4_15  and  O4_16 
REMARK    7  A    between atoms: O4_16  and  C1_24 
REMARK    8  A    between atoms: C5_18  and  C6_21 
REMARK    9  A    between atoms: C6_21  and  O6_22 
REMARK   10  A    between atoms: C2_26  and  O2_27 
REMARK   11  A    between atoms: O2_27  and  S_40 
REMARK   12  A    between atoms: C3_29  and  O3_30 
REMARK   13  A    between atoms: C4_33  and  O4_34 
REMARK   14  A    between atoms: O4_34  and  C1_41 
REMARK   15  A    between atoms: C5_35  and  C6_37 
REMARK   16  A    between atoms: S1_43  and  N2_45 
REMARK   17  A    between atoms: C2_44  and  N2_45 
REMARK   18  A    between atoms: S2_48  and  O6_60 
REMARK   19  A    between atoms: C3_49  and  O3_50 
REMARK   20  A    between atoms: C4_53  and  O4_54 
REMARK   21  A    between atoms: O4_54  and  C1_62 
REMARK   22  A    between atoms: C5_56  and  C6_59 
REMARK   23  A    between atoms: C6_59  and  O6_60 
REMARK   24  A    between atoms: C2_64  and  O2_65 
REMARK   25  A    between atoms: O2_65  and  S_77 
REMARK   26  A    between atoms: C3_67  and  O3_68 
REMARK   27  A    between atoms: C5_72  and  C6_74 
ROOT
HETATM    1  C1  IDS C   2      33.107  74.690  18.282  1.00 40.81     0.294 C 
HETATM    2  C2  IDS C   2      34.204  74.828  19.341  1.00 40.20     0.231 C 
HETATM    3  C3  IDS C   2      34.705  73.460  19.793  1.00 39.01     0.185 C 
HETATM    4  C4  IDS C   2      33.561  72.626  20.404  1.00 37.65     0.195 C 
HETATM    5  C5  IDS C   2      32.209  73.165  19.922  1.00 35.99     0.257 C 
HETATM    6  O5  IDS C   2      32.297  73.518  18.521  1.00 39.00    -0.340 OA
ENDROOT
BRANCH   4   7
HETATM    7  O4  IDS C   2      33.707  71.236  20.021  1.00 35.98    -0.348 OA
BRANCH   7   8
HETATM    8  C1  SGN C   3      34.778  70.942  19.165  1.00 35.40     0.287 C 
HETATM    9  C2  SGN C   3      34.446  69.710  18.304  1.00 33.71     0.182 C 
HETATM   10  C3  SGN C   3      34.485  68.407  19.112  1.00 35.79     0.178 C 
HETATM   11  C4  SGN C   3      35.746  68.313  19.988  1.00 36.62     0.186 C 
HETATM   12  C5  SGN C   3      35.937  69.605  20.772  1.00 39.32     0.181 C 
HETATM   13  O5  SGN C   3      35.986  70.727  19.873  1.00 37.58    -0.349 OA
BRANCH   9  14
HETATM   14  N2  SGN C   3      33.126  69.862  17.733  1.00 29.28    -0.289 N 
ATOM     15  H2  SGN C   3      32.299  69.932  18.325  1.00  0.00     0.175 HD
BRANCH  14  16
HETATM   16  S1  SGN C   3      33.006  69.920  16.086  1.00 27.84     0.205 S 
HETATM   17  O1S SGN C   3      33.662  71.160  15.716  1.00 27.65    -0.578 OA
HETATM   18  O2S SGN C   3      31.541  69.934  15.800  1.00 27.72    -0.578 OA
HETATM   19  O3S SGN C   3      33.681  68.720  15.496  1.00 28.50    -0.578 OA
ENDBRANCH  14  16
ENDBRANCH   9  14
BRANCH  10  20
HETATM   20  O3  SGN C   3      34.423  67.295  18.223  1.00 34.89    -0.391 OA
ATOM     21  H3  SGN C   3      33.884  67.518  17.473  1.00  0.00     0.210 HD
ENDBRANCH  10  20
BRANCH  11  22
HETATM   22  O4  SGN C   3      35.592  67.229  20.923  1.00 37.13    -0.348 OA
BRANCH  22  23
HETATM   23  C1  UAP C   4      36.774  66.704  21.422  1.00 39.64     0.294 C 
HETATM   24  C2  UAP C   4      36.521  66.025  22.756  1.00 38.70     0.228 C 
HETATM   25  C3  UAP C   4      37.837  65.533  23.351  1.00 38.51     0.156 C 
HETATM   26  C4  UAP C   4      38.820  64.862  22.283  1.00 38.14     0.077 C 
HETATM   27  C5  UAP C   4      38.432  65.026  20.945  1.00 38.51     0.228 C 
HETATM   28  O5  UAP C   4      37.247  65.740  20.491  1.00 37.46    -0.343 OA
BRANCH  24  29
HETATM   29  O2  UAP C   4      35.944  66.978  23.705  1.00 40.54    -0.244 OA
BRANCH  29  30
HETATM   30  S   UAP C   4      34.579  66.651  24.475  1.00 40.49     0.252 S 
HETATM   31  O1S UAP C   4      34.660  65.251  24.916  1.00 40.89    -0.572 OA
HETATM   32  O2S UAP C   4      33.488  66.854  23.511  1.00 37.88    -0.572 OA
HETATM   33  O3S UAP C   4      34.491  67.581  25.612  1.00 37.47    -0.572 OA
ENDBRANCH  29  30
ENDBRANCH  24  29
BRANCH  25  34
HETATM   34  O3  UAP C   4      37.557  64.598  24.381  1.00 38.58    -0.393 OA
ATOM     35  H3  UAP C   4      37.569  65.048  25.218  1.00  0.00     0.210 HD
ENDBRANCH  25  34
BRANCH  27  36
HETATM   36  C6  UAP C   4      39.199  64.438  19.812  1.00 37.96     0.203 C 
HETATM   37  O6A UAP C   4      38.719  64.532  18.665  1.00 40.05    -0.646 OA
HETATM   38  O6B UAP C   4      40.287  63.877  20.062  1.00 36.71    -0.646 OA
ENDBRANCH  27  36
ENDBRANCH  22  23
ENDBRANCH  11  22
BRANCH  12  39
HETATM   39  C6  SGN C   3      37.192  69.646  21.599  1.00 42.65     0.227 C 
BRANCH  39  40
HETATM   40  O6  SGN C   3      37.411  71.040  21.908  1.00 51.09    -0.254 OA
BRANCH  40  41
HETATM   41  S2  SGN C   3      36.921  71.532  23.345  1.00 54.80     0.251 S 
HETATM   42  O4S SGN C   3      37.814  72.628  23.764  1.00 54.99    -0.572 OA
HETATM   43  O5S SGN C   3      37.024  70.354  24.257  1.00 53.99    -0.572 OA
HETATM   44  O6S SGN C   3      35.545  71.985  23.191  1.00 55.43    -0.572 OA
ENDBRANCH  40  41
ENDBRANCH  39  40
ENDBRANCH  12  39
ENDBRANCH   7   8
ENDBRANCH   4   7
BRANCH   3  45
HETATM   45  O3  IDS C   2      35.744  73.627  20.749  1.00 39.65    -0.390 OA
ATOM     46  H3  IDS C   2      36.181  72.797  20.890  1.00  0.00     0.210 HD
ENDBRANCH   3  45
BRANCH   5  47
HETATM   47  C6  IDS C   2      31.038  72.206  20.089  1.00 36.10     0.206 C 
HETATM   48  O6A IDS C   2      30.729  71.491  19.110  1.00 32.44    -0.646 OA
HETATM   49  O6B IDS C   2      30.452  72.169  21.198  1.00 33.44    -0.646 OA
ENDBRANCH   5  47
BRANCH   2  50
HETATM   50  O2  IDS C   2      35.331  75.567  18.786  1.00 43.59    -0.244 OA
BRANCH  50  51
HETATM   51  S   IDS C   2      35.437  77.141  19.024  1.00 44.11     0.252 S 
HETATM   52  O1S IDS C   2      36.895  77.457  19.203  1.00 44.48    -0.572 OA
HETATM   53  O2S IDS C   2      34.647  77.451  20.235  1.00 44.29    -0.572 OA
HETATM   54  O3S IDS C   2      34.886  77.784  17.844  1.00 44.74    -0.572 OA
ENDBRANCH  50  51
ENDBRANCH   2  50
BRANCH   1  55
HETATM   55  O4  SGN C   1      32.287  75.809  18.316  1.00 44.73    -0.348 OA
BRANCH  55  56
HETATM   56  C4  SGN C   1      30.859  75.593  18.342  1.00 48.25     0.186 C 
HETATM   57  C3  SGN C   1      30.256  76.255  19.586  1.00 48.43     0.178 C 
HETATM   58  C2  SGN C   1      28.731  76.165  19.541  1.00 48.58     0.181 C 
HETATM   59  C1  SGN C   1      28.175  76.716  18.230  1.00 50.40     0.283 C 
HETATM   60  O5  SGN C   1      28.783  76.049  17.117  1.00 50.82    -0.349 OA
HETATM   61  C5  SGN C   1      30.221  76.203  17.083  1.00 51.58     0.181 C 
BRANCH  57  62
HETATM   62  O3  SGN C   1      30.729  75.607  20.756  1.00 46.09    -0.391 OA
ATOM     63  H3  SGN C   1      30.012  75.509  21.373  1.00  0.00     0.210 HD
ENDBRANCH  57  62
BRANCH  58  64
HETATM   64  N2  SGN C   1      28.149  76.884  20.656  1.00 48.56    -0.289 N 
ATOM     65  H2  SGN C   1      27.979  77.889  20.635  1.00  0.00     0.175 HD
BRANCH  64  66
HETATM   66  S1  SGN C   1      27.784  75.942  21.966  1.00 47.67     0.205 S 
HETATM   67  O1S SGN C   1      26.330  76.082  22.199  1.00 47.59    -0.578 OA
HETATM   68  O2S SGN C   1      28.583  76.483  23.071  1.00 48.55    -0.578 OA
HETATM   69  O3S SGN C   1      28.169  74.558  21.613  1.00 47.08    -0.578 OA
ENDBRANCH  64  66
ENDBRANCH  58  64
BRANCH  59  70
HETATM   70  O1  SGN C   1      28.446  78.073  18.135  1.00 51.36    -0.369 OA
ATOM     71  H1  SGN C   1      29.100  78.226  17.463  1.00  0.00     0.212 HD
ENDBRANCH  59  70
BRANCH  61  72
HETATM   72  C6  SGN C   1      30.695  75.543  15.812  1.00 55.48     0.227 C 
BRANCH  72  73
HETATM   73  O6  SGN C   1      30.466  76.428  14.694  1.00 61.59    -0.254 OA
BRANCH  73  74
HETATM   74  S2  SGN C   1      30.621  75.756  13.257  1.00 65.98     0.251 S 
HETATM   75  O4S SGN C   1      32.076  75.297  13.128  1.00 65.09    -0.572 OA
HETATM   76  O5S SGN C   1      30.291  76.781  12.283  1.00 65.58    -0.572 OA
HETATM   77  O6S SGN C   1      29.624  74.556  13.199  1.00 65.84    -0.572 OA
ENDBRANCH  73  74
ENDBRANCH  72  73
ENDBRANCH  61  72
ENDBRANCH  55  56
ENDBRANCH   1  55
TORSDOF 27
ENDMDL
MODEL 7
REMARK VINA RESULT:      -7.4      1.608      2.542
REMARK  27 active torsions:
REMARK  status: ('A' for Active; 'I' for Inactive)
REMARK    1  A    between atoms: C1_1  and  O1_2 
REMARK    2  A    between atoms: S1_5  and  N2_7 
REMARK    3  A    between atoms: C2_6  and  N2_7 
REMARK    4  A    between atoms: S2_10  and  O6_22 
REMARK    5  A    between atoms: C3_11  and  O3_12 
REMARK    6  A    between atoms: C4_15  and  O4_16 
REMARK    7  A    between atoms: O4_16  and  C1_24 
REMARK    8  A    between atoms: C5_18  and  C6_21 
REMARK    9  A    between atoms: C6_21  and  O6_22 
REMARK   10  A    between atoms: C2_26  and  O2_27 
REMARK   11  A    between atoms: O2_27  and  S_40 
REMARK   12  A    between atoms: C3_29  and  O3_30 
REMARK   13  A    between atoms: C4_33  and  O4_34 
REMARK   14  A    between atoms: O4_34  and  C1_41 
REMARK   15  A    between atoms: C5_35  and  C6_37 
REMARK   16  A    between atoms: S1_43  and  N2_45 
REMARK   17  A    between atoms: C2_44  and  N2_45 
REMARK   18  A    between atoms: S2_48  and  O6_60 
REMARK   19  A    between atoms: C3_49  and  O3_50 
REMARK   20  A    between atoms: C4_53  and  O4_54 
REMARK   21  A    between atoms: O4_54  and  C1_62 
REMARK   22  A    between atoms: C5_56  and  C6_59 
REMARK   23  A    between atoms: C6_59  and  O6_60 
REMARK   24  A    between atoms: C2_64  and  O2_65 
REMARK   25  A    between atoms: O2_65  and  S_77 
REMARK   26  A    between atoms: C3_67  and  O3_68 
REMARK   27  A    between atoms: C5_72  and  C6_74 
ROOT
HETATM    1  C1  IDS C   2      28.647  82.728  13.334  1.00 40.81     0.294 C 
HETATM    2  C2  IDS C   2      29.185  81.735  12.301  1.00 40.20     0.231 C 
HETATM    3  C3  IDS C   2      29.095  80.303  12.818  1.00 39.01     0.185 C 
HETATM    4  C4  IDS C   2      29.916  80.130  14.112  1.00 37.65     0.195 C 
HETATM    5  C5  IDS C   2      30.139  81.495  14.774  1.00 35.99     0.257 C 
HETATM    6  O5  IDS C   2      28.929  82.285  14.680  1.00 39.00    -0.340 OA
ENDROOT
BRANCH   4   7
HETATM    7  O4  IDS C   2      29.217  79.244  15.023  1.00 35.98    -0.348 OA
BRANCH   7   8
HETATM    8  C1  SGN C   3      28.966  77.948  14.551  1.00 35.40     0.287 C 
HETATM    9  C2  SGN C   3      28.242  77.123  15.630  1.00 33.71     0.182 C 
HETATM   10  C3  SGN C   3      29.173  76.728  16.783  1.00 35.79     0.178 C 
HETATM   11  C4  SGN C   3      30.513  76.169  16.274  1.00 36.62     0.186 C 
HETATM   12  C5  SGN C   3      31.097  77.095  15.215  1.00 39.32     0.181 C 
HETATM   13  O5  SGN C   3      30.151  77.286  14.148  1.00 37.58    -0.349 OA
BRANCH   9  14
HETATM   14  N2  SGN C   3      27.139  77.889  16.165  1.00 29.28    -0.289 N 
ATOM     15  H2  SGN C   3      27.300  78.727  16.724  1.00  0.00     0.175 HD
BRANCH  14  16
HETATM   16  S1  SGN C   3      25.609  77.360  15.838  1.00 27.84     0.205 S 
HETATM   17  O1S SGN C   3      25.497  77.438  14.393  1.00 27.65    -0.578 OA
HETATM   18  O2S SGN C   3      24.704  78.319  16.538  1.00 27.72    -0.578 OA
HETATM   19  O3S SGN C   3      25.446  75.962  16.347  1.00 28.50    -0.578 OA
ENDBRANCH  14  16
ENDBRANCH   9  14
BRANCH  10  20
HETATM   20  O3  SGN C   3      28.523  75.765  17.609  1.00 34.89    -0.391 OA
ATOM     21  H3  SGN C   3      27.583  75.894  17.567  1.00  0.00     0.210 HD
ENDBRANCH  10  20
BRANCH  11  22
HETATM   22  O4  SGN C   3      31.439  76.089  17.373  1.00 37.13    -0.348 OA
BRANCH  22  23
HETATM   23  C1  UAP C   4      31.747  74.805  17.796  1.00 39.64     0.294 C 
HETATM   24  C2  UAP C   4      30.869  74.418  18.972  1.00 38.70     0.228 C 
HETATM   25  C3  UAP C   4      31.275  73.045  19.499  1.00 38.51     0.156 C 
HETATM   26  C4  UAP C   4      31.592  71.979  18.351  1.00 38.14     0.077 C 
HETATM   27  C5  UAP C   4      31.669  72.515  17.057  1.00 38.51     0.228 C 
HETATM   28  O5  UAP C   4      31.491  73.919  16.714  1.00 37.46    -0.343 OA
BRANCH  24  29
HETATM   29  O2  UAP C   4      31.045  75.374  20.067  1.00 40.54    -0.244 OA
BRANCH  29  30
HETATM   30  S   UAP C   4      29.788  76.118  20.723  1.00 40.49     0.252 S 
HETATM   31  O1S UAP C   4      29.473  77.267  19.862  1.00 40.89    -0.572 OA
HETATM   32  O2S UAP C   4      30.203  76.546  22.068  1.00 37.88    -0.572 OA
HETATM   33  O3S UAP C   4      28.685  75.145  20.769  1.00 37.47    -0.572 OA
ENDBRANCH  29  30
ENDBRANCH  24  29
BRANCH  25  34
HETATM   34  O3  UAP C   4      30.239  72.544  20.330  1.00 38.58    -0.393 OA
ATOM     35  H3  UAP C   4      29.827  73.271  20.782  1.00  0.00     0.210 HD
ENDBRANCH  25  34
BRANCH  27  36
HETATM   36  C6  UAP C   4      31.916  71.673  15.855  1.00 37.96     0.203 C 
HETATM   37  O6A UAP C   4      33.028  71.118  15.743  1.00 40.05    -0.646 OA
HETATM   38  O6B UAP C   4      31.001  71.562  15.012  1.00 36.71    -0.646 OA
ENDBRANCH  27  36
ENDBRANCH  22  23
ENDBRANCH  11  22
BRANCH  12  39
HETATM   39  C6  SGN C   3      32.371  76.593  14.592  1.00 42.65     0.227 C 
BRANCH  39  40
HETATM   40  O6  SGN C   3      33.410  77.480  15.059  1.00 51.09    -0.254 OA
BRANCH  40  41
HETATM   41  S2  SGN C   3      34.789  76.796  15.478  1.00 54.80     0.251 S 
HETATM   42  O4S SGN C   3      35.728  76.969  14.355  1.00 54.99    -0.572 OA
HETATM   43  O5S SGN C   3      34.490  75.355  15.734  1.00 53.99    -0.572 OA
HETATM   44  O6S SGN C   3      35.253  77.479  16.679  1.00 55.43    -0.572 OA
ENDBRANCH  40  41
ENDBRANCH  39  40
ENDBRANCH  12  39
ENDBRANCH   7   8
ENDBRANCH   4   7
BRANCH   3  45
HETATM   45  O3  IDS C   2      29.571  79.408  11.822  1.00 39.65    -0.390 OA
ATOM     46  H3  IDS C   2      29.806  78.581  12.225  1.00  0.00     0.210 HD
ENDBRANCH   3  45
BRANCH   5  47
HETATM   47  C6  IDS C   2      30.547  81.440  16.240  1.00 36.10     0.206 C 
HETATM   48  O6A IDS C   2      31.098  80.395  16.650  1.00 32.44    -0.646 OA
HETATM   49  O6B IDS C   2      30.326  82.445  16.958  1.00 33.44    -0.646 OA
ENDBRANCH   5  47
BRANCH   2  50
HETATM   50  O2  IDS C   2      28.401  81.828  11.076  1.00 43.59    -0.244 OA
BRANCH  50  51
HETATM   51  S   IDS C   2      29.121  82.222   9.707  1.00 44.11     0.252 S 
HETATM   52  O1S IDS C   2      30.073  83.341  10.023  1.00 44.48    -0.572 OA
HETATM   53  O2S IDS C   2      28.061  82.642   8.765  1.00 44.29    -0.572 OA
HETATM   54  O3S IDS C   2      29.816  81.037   9.240  1.00 44.74    -0.572 OA
ENDBRANCH  50  51
ENDBRANCH   2  50
BRANCH   1  55
HETATM   55  O4  SGN C   1      29.243  83.966  13.141  1.00 44.73    -0.348 OA
BRANCH  55  56
HETATM   56  C4  SGN C   1      28.540  85.131  13.626  1.00 48.25     0.186 C 
HETATM   57  C3  SGN C   1      29.256  85.693  14.861  1.00 48.43     0.178 C 
HETATM   58  C2  SGN C   1      28.611  87.011  15.286  1.00 48.58     0.181 C 
HETATM   59  C1  SGN C   1      28.537  88.000  14.125  1.00 50.40     0.283 C 
HETATM   60  O5  SGN C   1      27.855  87.406  13.013  1.00 50.82    -0.349 OA
HETATM   61  C5  SGN C   1      28.504  86.208  12.528  1.00 51.58     0.181 C 
BRANCH  57  62
HETATM   62  O3  SGN C   1      29.174  84.764  15.931  1.00 46.09    -0.391 OA
ATOM     63  H3  SGN C   1      30.051  84.503  16.187  1.00  0.00     0.210 HD
ENDBRANCH  57  62
BRANCH  58  64
HETATM   64  N2  SGN C   1      29.349  87.604  16.383  1.00 48.56    -0.289 N 
ATOM     65  H2  SGN C   1      30.318  87.908  16.295  1.00  0.00     0.175 HD
BRANCH  64  66
HETATM   66  S1  SGN C   1      28.491  87.745  17.791  1.00 47.67     0.205 S 
HETATM   67  O1S SGN C   1      27.093  88.039  17.409  1.00 47.59    -0.578 OA
HETATM   68  O2S SGN C   1      29.118  88.852  18.520  1.00 48.55    -0.578 OA
HETATM   69  O3S SGN C   1      28.623  86.453  18.499  1.00 47.08    -0.578 OA
ENDBRANCH  64  66
ENDBRANCH  58  64
BRANCH  59  70
HETATM   70  O1  SGN C   1      29.817  88.353  13.723  1.00 51.36    -0.369 OA
ATOM     71  H1  SGN C   1      30.175  89.002  14.317  1.00  0.00     0.212 HD
ENDBRANCH  59  70
BRANCH  61  72
HETATM   72  C6  SGN C   1      27.737  85.767  11.306  1.00 55.48     0.227 C 
BRANCH  72  73
HETATM   73  O6  SGN C   1      26.403  86.319  11.348  1.00 61.59    -0.254 OA
BRANCH  73  74
HETATM   74  S2  SGN C   1      25.226  85.258  11.188  1.00 65.98     0.251 S 
HETATM   75  O4S SGN C   1      24.754  85.322   9.733  1.00 65.09    -0.572 OA
HETATM   76  O5S SGN C   1      24.180  85.657  12.113  1.00 65.58    -0.572 OA
HETATM   77  O6S SGN C   1      25.816  83.858  11.547  1.00 65.84    -0.572 OA
ENDBRANCH  73  74
ENDBRANCH  72  73
ENDBRANCH  61  72
ENDBRANCH  55  56
ENDBRANCH   1  55
TORSDOF 27
ENDMDL
MODEL 8
REMARK VINA RESULT:      -7.3      4.827     13.827
REMARK  27 active torsions:
REMARK  status: ('A' for Active; 'I' for Inactive)
REMARK    1  A    between atoms: C1_1  and  O1_2 
REMARK    2  A    between atoms: S1_5  and  N2_7 
REMARK    3  A    between atoms: C2_6  and  N2_7 
REMARK    4  A    between atoms: S2_10  and  O6_22 
REMARK    5  A    between atoms: C3_11  and  O3_12 
REMARK    6  A    between atoms: C4_15  and  O4_16 
REMARK    7  A    between atoms: O4_16  and  C1_24 
REMARK    8  A    between atoms: C5_18  and  C6_21 
REMARK    9  A    between atoms: C6_21  and  O6_22 
REMARK   10  A    between atoms: C2_26  and  O2_27 
REMARK   11  A    between atoms: O2_27  and  S_40 
REMARK   12  A    between atoms: C3_29  and  O3_30 
REMARK   13  A    between atoms: C4_33  and  O4_34 
REMARK   14  A    between atoms: O4_34  and  C1_41 
REMARK   15  A    between atoms: C5_35  and  C6_37 
REMARK   16  A    between atoms: S1_43  and  N2_45 
REMARK   17  A    between atoms: C2_44  and  N2_45 
REMARK   18  A    between atoms: S2_48  and  O6_60 
REMARK   19  A    between atoms: C3_49  and  O3_50 
REMARK   20  A    between atoms: C4_53  and  O4_54 
REMARK   21  A    between atoms: O4_54  and  C1_62 
REMARK   22  A    between atoms: C5_56  and  C6_59 
REMARK   23  A    between atoms: C6_59  and  O6_60 
REMARK   24  A    between atoms: C2_64  and  O2_65 
REMARK   25  A    between atoms: O2_65  and  S_77 
REMARK   26  A    between atoms: C3_67  and  O3_68 
REMARK   27  A    between atoms: C5_72  and  C6_74 
ROOT
HETATM    1  C1  IDS C   2      35.491  72.584  20.603  1.00 40.81     0.294 C 
HETATM    2  C2  IDS C   2      34.305  71.623  20.701  1.00 40.20     0.231 C 
HETATM    3  C3  IDS C   2      33.198  72.016  19.727  1.00 39.01     0.185 C 
HETATM    4  C4  IDS C   2      32.680  73.437  20.023  1.00 37.65     0.195 C 
HETATM    5  C5  IDS C   2      33.731  74.219  20.821  1.00 35.99     0.257 C 
HETATM    6  O5  IDS C   2      35.051  73.928  20.305  1.00 39.00    -0.340 OA
ENDROOT
BRANCH   4   7
HETATM    7  O4  IDS C   2      32.390  74.124  18.779  1.00 35.98    -0.348 OA
BRANCH   7   8
HETATM    8  C1  SGN C   3      31.174  73.795  18.162  1.00 35.40     0.287 C 
HETATM    9  C2  SGN C   3      31.264  74.049  16.647  1.00 33.71     0.182 C 
HETATM   10  C3  SGN C   3      31.251  75.543  16.305  1.00 35.79     0.178 C 
HETATM   11  C4  SGN C   3      30.145  76.297  17.064  1.00 36.62     0.186 C 
HETATM   12  C5  SGN C   3      30.188  75.938  18.544  1.00 39.32     0.181 C 
HETATM   13  O5  SGN C   3      30.084  74.513  18.711  1.00 37.58    -0.349 OA
BRANCH   9  14
HETATM   14  N2  SGN C   3      32.481  73.464  16.130  1.00 29.28    -0.289 N 
ATOM     15  H2  SGN C   3      33.391  73.709  16.520  1.00  0.00     0.175 HD
BRANCH  14  16
HETATM   16  S1  SGN C   3      32.345  72.385  14.887  1.00 27.84     0.205 S 
HETATM   17  O1S SGN C   3      31.184  71.583  15.225  1.00 27.65    -0.578 OA
HETATM   18  O2S SGN C   3      33.615  71.600  14.909  1.00 27.72    -0.578 OA
HETATM   19  O3S SGN C   3      32.169  73.129  13.600  1.00 28.50    -0.578 OA
ENDBRANCH  14  16
ENDBRANCH   9  14
BRANCH  10  20
HETATM   20  O3  SGN C   3      31.079  75.708  14.900  1.00 34.89    -0.391 OA
ATOM     21  H3  SGN C   3      30.679  76.552  14.726  1.00  0.00     0.210 HD
ENDBRANCH  10  20
BRANCH  11  22
HETATM   22  O4  SGN C   3      30.361  77.713  16.930  1.00 37.13    -0.348 OA
BRANCH  22  23
HETATM   23  C1  UAP C   4      29.308  78.425  16.379  1.00 39.64     0.294 C 
HETATM   24  C2  UAP C   4      29.568  78.686  14.906  1.00 38.70     0.228 C 
HETATM   25  C3  UAP C   4      28.455  79.552  14.323  1.00 38.51     0.156 C 
HETATM   26  C4  UAP C   4      26.991  79.144  14.818  1.00 38.14     0.077 C 
HETATM   27  C5  UAP C   4      26.964  78.216  15.869  1.00 38.51     0.228 C 
HETATM   28  O5  UAP C   4      28.134  77.632  16.510  1.00 37.46    -0.343 OA
BRANCH  24  29
HETATM   29  O2  UAP C   4      30.824  79.420  14.740  1.00 40.54    -0.244 OA
BRANCH  29  30
HETATM   30  S   UAP C   4      31.900  78.977  13.641  1.00 40.49     0.252 S 
HETATM   31  O1S UAP C   4      31.153  78.363  12.533  1.00 40.89    -0.572 OA
HETATM   32  O2S UAP C   4      32.797  78.010  14.292  1.00 37.88    -0.572 OA
HETATM   33  O3S UAP C   4      32.612  80.193  13.218  1.00 37.47    -0.572 OA
ENDBRANCH  29  30
ENDBRANCH  24  29
BRANCH  25  34
HETATM   34  O3  UAP C   4      28.508  79.480  12.907  1.00 38.58    -0.393 OA
ATOM     35  H3  UAP C   4      29.361  79.153  12.646  1.00  0.00     0.210 HD
ENDBRANCH  25  34
BRANCH  27  36
HETATM   36  C6  UAP C   4      25.694  77.686  16.437  1.00 37.96     0.203 C 
HETATM   37  O6A UAP C   4      24.772  78.493  16.671  1.00 40.05    -0.646 OA
HETATM   38  O6B UAP C   4      25.610  76.459  16.655  1.00 36.71    -0.646 OA
ENDBRANCH  27  36
ENDBRANCH  22  23
ENDBRANCH  11  22
BRANCH  12  39
HETATM   39  C6  SGN C   3      29.091  76.560  19.362  1.00 42.65     0.227 C 
BRANCH  39  40
HETATM   40  O6  SGN C   3      29.399  76.241  20.736  1.00 51.09    -0.254 OA
BRANCH  40  41
HETATM   41  S2  SGN C   3      28.154  76.049  21.715  1.00 54.80     0.251 S 
HETATM   42  O4S SGN C   3      28.534  76.603  23.027  1.00 54.99    -0.572 OA
HETATM   43  O5S SGN C   3      27.891  74.581  21.789  1.00 53.99    -0.572 OA
HETATM   44  O6S SGN C   3      27.037  76.775  21.125  1.00 55.43    -0.572 OA
ENDBRANCH  40  41
ENDBRANCH  39  40
ENDBRANCH  12  39
ENDBRANCH   7   8
ENDBRANCH   4   7
BRANCH   3  45
HETATM   45  O3  IDS C   2      32.130  71.083  19.822  1.00 39.65    -0.390 OA
ATOM     46  H3  IDS C   2      32.228  70.568  20.613  1.00  0.00     0.210 HD
ENDBRANCH   3  45
BRANCH   5  47
HETATM   47  C6  IDS C   2      33.550  75.731  20.815  1.00 36.10     0.206 C 
HETATM   48  O6A IDS C   2      34.382  76.412  20.175  1.00 32.44    -0.646 OA
HETATM   49  O6B IDS C   2      32.573  76.217  21.434  1.00 33.44    -0.646 OA
ENDBRANCH   5  47
BRANCH   2  50
HETATM   50  O2  IDS C   2      34.740  70.271  20.376  1.00 43.59    -0.244 OA
BRANCH  50  51
HETATM   51  S   IDS C   2      34.048  69.025  21.095  1.00 44.11     0.252 S 
HETATM   52  O1S IDS C   2      33.388  69.552  22.337  1.00 44.48    -0.572 OA
HETATM   53  O2S IDS C   2      35.118  68.052  21.402  1.00 44.29    -0.572 OA
HETATM   54  O3S IDS C   2      33.081  68.482  20.158  1.00 44.74    -0.572 OA
ENDBRANCH  50  51
ENDBRANCH   2  50
BRANCH   1  55
HETATM   55  O4  SGN C   1      36.176  72.601  21.810  1.00 44.73    -0.348 OA
BRANCH  55  56
HETATM   56  C4  SGN C   1      37.440  71.906  21.873  1.00 48.25     0.186 C 
HETATM   57  C3  SGN C   1      38.578  72.863  21.496  1.00 48.43     0.178 C 
HETATM   58  C2  SGN C   1      39.929  72.183  21.710  1.00 48.58     0.181 C 
HETATM   59  C1  SGN C   1      40.055  71.616  23.122  1.00 50.40     0.283 C 
HETATM   60  O5  SGN C   1      38.961  70.732  23.398  1.00 50.82    -0.349 OA
HETATM   61  C5  SGN C   1      37.672  71.380  23.299  1.00 51.58     0.181 C 
BRANCH  57  62
HETATM   62  O3  SGN C   1      38.456  73.247  20.135  1.00 46.09    -0.391 OA
ATOM     63  H3  SGN C   1      37.537  73.357  19.921  1.00  0.00     0.210 HD
ENDBRANCH  57  62
BRANCH  58  64
HETATM   64  N2  SGN C   1      41.009  73.115  21.462  1.00 48.56    -0.289 N 
ATOM     65  H2  SGN C   1      41.126  73.977  21.994  1.00  0.00     0.175 HD
BRANCH  64  66
HETATM   66  S1  SGN C   1      42.038  72.668  20.245  1.00 47.67     0.205 S 
HETATM   67  O1S SGN C   1      42.952  73.809  20.021  1.00 47.59    -0.578 OA
HETATM   68  O2S SGN C   1      41.180  72.402  19.087  1.00 48.55    -0.578 OA
HETATM   69  O3S SGN C   1      42.749  71.459  20.715  1.00 47.08    -0.578 OA
ENDBRANCH  64  66
ENDBRANCH  58  64
BRANCH  59  70
HETATM   70  O1  SGN C   1      40.035  72.648  24.049  1.00 51.36    -0.369 OA
ATOM     71  H1  SGN C   1      39.400  72.459  24.729  1.00  0.00     0.212 HD
ENDBRANCH  59  70
BRANCH  61  72
HETATM   72  C6  SGN C   1      36.643  70.360  23.717  1.00 55.48     0.227 C 
BRANCH  72  73
HETATM   73  O6  SGN C   1      37.174  69.031  23.522  1.00 61.59    -0.254 OA
BRANCH  73  74
HETATM   74  S2  SGN C   1      36.872  68.002  24.701  1.00 65.98     0.251 S 
HETATM   75  O4S SGN C   1      35.370  67.711  24.673  1.00 65.09    -0.572 OA
HETATM   76  O5S SGN C   1      37.272  68.656  25.934  1.00 65.58    -0.572 OA
HETATM   77  O6S SGN C   1      37.719  66.721  24.422  1.00 65.84    -0.572 OA
ENDBRANCH  73  74
ENDBRANCH  72  73
ENDBRANCH  61  72
ENDBRANCH  55  56
ENDBRANCH   1  55
TORSDOF 27
ENDMDL
MODEL 9
REMARK VINA RESULT:      -7.3      7.431     17.157
REMARK  27 active torsions:
REMARK  status: ('A' for Active; 'I' for Inactive)
REMARK    1  A    between atoms: C1_1  and  O1_2 
REMARK    2  A    between atoms: S1_5  and  N2_7 
REMARK    3  A    between atoms: C2_6  and  N2_7 
REMARK    4  A    between atoms: S2_10  and  O6_22 
REMARK    5  A    between atoms: C3_11  and  O3_12 
REMARK    6  A    between atoms: C4_15  and  O4_16 
REMARK    7  A    between atoms: O4_16  and  C1_24 
REMARK    8  A    between atoms: C5_18  and  C6_21 
REMARK    9  A    between atoms: C6_21  and  O6_22 
REMARK   10  A    between atoms: C2_26  and  O2_27 
REMARK   11  A    between atoms: O2_27  and  S_40 
REMARK   12  A    between atoms: C3_29  and  O3_30 
REMARK   13  A    between atoms: C4_33  and  O4_34 
REMARK   14  A    between atoms: O4_34  and  C1_41 
REMARK   15  A    between atoms: C5_35  and  C6_37 
REMARK   16  A    between atoms: S1_43  and  N2_45 
REMARK   17  A    between atoms: C2_44  and  N2_45 
REMARK   18  A    between atoms: S2_48  and  O6_60 
REMARK   19  A    between atoms: C3_49  and  O3_50 
REMARK   20  A    between atoms: C4_53  and  O4_54 
REMARK   21  A    between atoms: O4_54  and  C1_62 
REMARK   22  A    between atoms: C5_56  and  C6_59 
REMARK   23  A    between atoms: C6_59  and  O6_60 
REMARK   24  A    between atoms: C2_64  and  O2_65 
REMARK   25  A    between atoms: O2_65  and  S_77 
REMARK   26  A    between atoms: C3_67  and  O3_68 
REMARK   27  A    between atoms: C5_72  and  C6_74 
ROOT
HETATM    1  C1  IDS C   2      36.219  67.787  22.715  1.00 40.81     0.294 C 
HETATM    2  C2  IDS C   2      34.891  67.230  22.197  1.00 40.20     0.231 C 
HETATM    3  C3  IDS C   2      34.016  68.341  21.624  1.00 39.01     0.185 C 
HETATM    4  C4  IDS C   2      33.697  69.402  22.697  1.00 37.65     0.195 C 
HETATM    5  C5  IDS C   2      34.733  69.329  23.826  1.00 35.99     0.257 C 
HETATM    6  O5  IDS C   2      36.050  69.112  23.266  1.00 39.00    -0.340 OA
ENDROOT
BRANCH   4   7
HETATM    7  O4  IDS C   2      33.706  70.723  22.099  1.00 35.98    -0.348 OA
BRANCH   7   8
HETATM    8  C1  SGN C   3      34.252  70.813  20.811  1.00 35.40     0.287 C 
HETATM    9  C2  SGN C   3      35.079  72.104  20.676  1.00 33.71     0.182 C 
HETATM   10  C3  SGN C   3      34.197  73.355  20.595  1.00 35.79     0.178 C 
HETATM   11  C4  SGN C   3      33.035  73.177  19.603  1.00 36.62     0.186 C 
HETATM   12  C5  SGN C   3      32.321  71.857  19.865  1.00 39.32     0.181 C 
HETATM   13  O5  SGN C   3      33.258  70.766  19.803  1.00 37.58    -0.349 OA
BRANCH   9  14
HETATM   14  N2  SGN C   3      35.965  72.231  21.812  1.00 29.28    -0.289 N 
ATOM     15  H2  SGN C   3      35.599  72.284  22.762  1.00  0.00     0.175 HD
BRANCH  14  16
HETATM   16  S1  SGN C   3      37.589  72.289  21.515  1.00 27.84     0.205 S 
HETATM   17  O1S SGN C   3      38.159  72.863  22.719  1.00 27.65    -0.578 OA
HETATM   18  O2S SGN C   3      37.738  73.178  20.325  1.00 27.72    -0.578 OA
HETATM   19  O3S SGN C   3      38.095  70.906  21.248  1.00 28.50    -0.578 OA
ENDBRANCH  14  16
ENDBRANCH   9  14
BRANCH  10  20
HETATM   20  O3  SGN C   3      34.994  74.475  20.218  1.00 34.89    -0.391 OA
ATOM     21  H3  SGN C   3      34.454  75.257  20.201  1.00  0.00     0.210 HD
ENDBRANCH  10  20
BRANCH  11  22
HETATM   22  O4  SGN C   3      32.093  74.249  19.780  1.00 37.13    -0.348 OA
BRANCH  22  23
HETATM   23  C1  UAP C   4      31.742  74.927  18.623  1.00 39.64     0.294 C 
HETATM   24  C2  UAP C   4      30.647  75.936  18.921  1.00 38.70     0.228 C 
HETATM   25  C3  UAP C   4      30.193  76.612  17.630  1.00 38.51     0.156 C 
HETATM   26  C4  UAP C   4      31.392  76.997  16.644  1.00 38.14     0.077 C 
HETATM   27  C5  UAP C   4      32.639  76.463  17.001  1.00 38.51     0.228 C 
HETATM   28  O5  UAP C   4      32.895  75.616  18.157  1.00 37.46    -0.343 OA
BRANCH  24  29
HETATM   29  O2  UAP C   4      29.481  75.259  19.491  1.00 40.54    -0.244 OA
BRANCH  29  30
HETATM   30  S   UAP C   4      28.672  75.900  20.715  1.00 40.49     0.252 S 
HETATM   31  O1S UAP C   4      27.603  76.727  20.136  1.00 40.89    -0.572 OA
HETATM   32  O2S UAP C   4      29.631  76.711  21.479  1.00 37.88    -0.572 OA
HETATM   33  O3S UAP C   4      28.136  74.784  21.510  1.00 37.47    -0.572 OA
ENDBRANCH  29  30
ENDBRANCH  24  29
BRANCH  25  34
HETATM   34  O3  UAP C   4      29.460  77.783  17.955  1.00 38.58    -0.393 OA
ATOM     35  H3  UAP C   4      30.008  78.543  17.801  1.00  0.00     0.210 HD
ENDBRANCH  25  34
BRANCH  27  36
HETATM   36  C6  UAP C   4      33.880  76.744  16.228  1.00 37.96     0.203 C 
HETATM   37  O6A UAP C   4      34.757  77.453  16.759  1.00 40.05    -0.646 OA
HETATM   38  O6B UAP C   4      33.985  76.259  15.081  1.00 36.71    -0.646 OA
ENDBRANCH  27  36
ENDBRANCH  22  23
ENDBRANCH  11  22
BRANCH  12  39
HETATM   39  C6  SGN C   3      31.218  71.547  18.891  1.00 42.65     0.227 C 
BRANCH  39  40
HETATM   40  O6  SGN C   3      31.827  71.597  17.583  1.00 51.09    -0.254 OA
BRANCH  40  41
HETATM   41  S2  SGN C   3      31.764  70.255  16.721  1.00 54.80     0.251 S 
HETATM   42  O4S SGN C   3      30.936  70.533  15.532  1.00 54.99    -0.572 OA
HETATM   43  O5S SGN C   3      31.146  69.215  17.596  1.00 53.99    -0.572 OA
HETATM   44  O6S SGN C   3      33.134  69.921  16.358  1.00 55.43    -0.572 OA
ENDBRANCH  40  41
ENDBRANCH  39  40
ENDBRANCH  12  39
ENDBRANCH   7   8
ENDBRANCH   4   7
BRANCH   3  45
HETATM   45  O3  IDS C   2      32.809  67.783  21.123  1.00 39.65    -0.390 OA
ATOM     46  H3  IDS C   2      32.806  67.834  20.175  1.00  0.00     0.210 HD
ENDBRANCH   3  45
BRANCH   5  47
HETATM   47  C6  IDS C   2      34.801  70.563  24.716  1.00 36.10     0.206 C 
HETATM   48  O6A IDS C   2      33.953  70.667  25.629  1.00 32.44    -0.646 OA
HETATM   49  O6B IDS C   2      35.709  71.402  24.502  1.00 33.44    -0.646 OA
ENDBRANCH   5  47
BRANCH   2  50
HETATM   50  O2  IDS C   2      35.145  66.259  21.141  1.00 43.59    -0.244 OA
BRANCH  50  51
HETATM   51  S   IDS C   2      34.185  64.993  20.986  1.00 44.11     0.252 S 
HETATM   52  O1S IDS C   2      35.074  63.791  20.830  1.00 44.48    -0.572 OA
HETATM   53  O2S IDS C   2      33.349  65.226  19.790  1.00 44.29    -0.572 OA
HETATM   54  O3S IDS C   2      33.386  64.920  22.195  1.00 44.74    -0.572 OA
ENDBRANCH  50  51
ENDBRANCH   2  50
BRANCH   1  55
HETATM   55  O4  SGN C   1      36.714  66.955  23.710  1.00 44.73    -0.348 OA
BRANCH  55  56
HETATM   56  C4  SGN C   1      37.733  66.001  23.340  1.00 48.25     0.186 C 
HETATM   57  C3  SGN C   1      39.121  66.624  23.533  1.00 48.43     0.178 C 
HETATM   58  C2  SGN C   1      40.205  65.574  23.293  1.00 48.58     0.181 C 
HETATM   59  C1  SGN C   1      39.976  64.326  24.143  1.00 50.40     0.283 C 
HETATM   60  O5  SGN C   1      38.663  63.803  23.906  1.00 50.82    -0.349 OA
HETATM   61  C5  SGN C   1      37.613  64.747  24.222  1.00 51.58     0.181 C 
BRANCH  57  62
HETATM   62  O3  SGN C   1      39.300  67.698  22.623  1.00 46.09    -0.391 OA
ATOM     63  H3  SGN C   1      38.463  68.120  22.467  1.00  0.00     0.210 HD
ENDBRANCH  57  62
BRANCH  58  64
HETATM   64  N2  SGN C   1      41.514  66.124  23.580  1.00 48.56    -0.289 N 
ATOM     65  H2  SGN C   1      41.894  66.177  24.525  1.00  0.00     0.175 HD
BRANCH  64  66
HETATM   66  S1  SGN C   1      42.342  66.658  22.251  1.00 47.67     0.205 S 
HETATM   67  O1S SGN C   1      42.307  68.137  22.295  1.00 47.59    -0.578 OA
HETATM   68  O2S SGN C   1      41.620  66.115  21.097  1.00 48.55    -0.578 OA
HETATM   69  O3S SGN C   1      43.716  66.123  22.365  1.00 47.08    -0.578 OA
ENDBRANCH  64  66
ENDBRANCH  58  64
BRANCH  59  70
HETATM   70  O1  SGN C   1      40.091  64.643  25.488  1.00 51.36    -0.369 OA
ATOM     71  H1  SGN C   1      40.703  64.051  25.909  1.00  0.00     0.212 HD
ENDBRANCH  59  70
BRANCH  61  72
HETATM   72  C6  SGN C   1      36.306  64.020  24.024  1.00 55.48     0.227 C 
BRANCH  72  73
HETATM   73  O6  SGN C   1      35.649  63.854  25.300  1.00 61.59    -0.254 OA
BRANCH  73  74
HETATM   74  S2  SGN C   1      35.677  62.372  25.886  1.00 65.98     0.251 S 
HETATM   75  O4S SGN C   1      36.656  62.372  27.063  1.00 65.09    -0.572 OA
HETATM   76  O5S SGN C   1      36.127  61.509  24.810  1.00 65.58    -0.572 OA
HETATM   77  O6S SGN C   1      34.223  62.028  26.338  1.00 65.84    -0.572 OA
ENDBRANCH  73  74
ENDBRANCH  72  73
ENDBRANCH  61  72
ENDBRANCH  55  56
ENDBRANCH   1  55
TORSDOF 27
ENDMDL
MODEL 10
REMARK VINA RESULT:      -7.2      2.122      3.029
REMARK  27 active torsions:
REMARK  status: ('A' for Active; 'I' for Inactive)
REMARK    1  A    between atoms: C1_1  and  O1_2 
REMARK    2  A    between atoms: S1_5  and  N2_7 
REMARK    3  A    between atoms: C2_6  and  N2_7 
REMARK    4  A    between atoms: S2_10  and  O6_22 
REMARK    5  A    between atoms: C3_11  and  O3_12 
REMARK    6  A    between atoms: C4_15  and  O4_16 
REMARK    7  A    between atoms: O4_16  and  C1_24 
REMARK    8  A    between atoms: C5_18  and  C6_21 
REMARK    9  A    between atoms: C6_21  and  O6_22 
REMARK   10  A    between atoms: C2_26  and  O2_27 
REMARK   11  A    between atoms: O2_27  and  S_40 
REMARK   12  A    between atoms: C3_29  and  O3_30 
REMARK   13  A    between atoms: C4_33  and  O4_34 
REMARK   14  A    between atoms: O4_34  and  C1_41 
REMARK   15  A    between atoms: C5_35  and  C6_37 
REMARK   16  A    between atoms: S1_43  and  N2_45 
REMARK   17  A    between atoms: C2_44  and  N2_45 
REMARK   18  A    between atoms: S2_48  and  O6_60 
REMARK   19  A    between atoms: C3_49  and  O3_50 
REMARK   20  A    between atoms: C4_53  and  O4_54 
REMARK   21  A    between atoms: O4_54  and  C1_62 
REMARK   22  A    between atoms: C5_56  and  C6_59 
REMARK   23  A    between atoms: C6_59  and  O6_60 
REMARK   24  A    between atoms: C2_64  and  O2_65 
REMARK   25  A    between atoms: O2_65  and  S_77 
REMARK   26  A    between atoms: C3_67  and  O3_68 
REMARK   27  A    between atoms: C5_72  and  C6_74 
ROOT
HETATM    1  C1  IDS C   2      28.494  83.199  13.396  1.00 40.81     0.294 C 
HETATM    2  C2  IDS C   2      28.862  82.256  12.248  1.00 40.20     0.231 C 
HETATM    3  C3  IDS C   2      28.684  80.797  12.658  1.00 39.01     0.185 C 
HETATM    4  C4  IDS C   2      29.581  80.448  13.863  1.00 37.65     0.195 C 
HETATM    5  C5  IDS C   2      29.974  81.730  14.608  1.00 35.99     0.257 C 
HETATM    6  O5  IDS C   2      28.836  82.623  14.675  1.00 39.00    -0.340 OA
ENDROOT
BRANCH   4   7
HETATM    7  O4  IDS C   2      28.876  79.550  14.757  1.00 35.98    -0.348 OA
BRANCH   7   8
HETATM    8  C1  SGN C   3      28.435  78.343  14.196  1.00 35.40     0.287 C 
HETATM    9  C2  SGN C   3      27.920  77.404  15.300  1.00 33.71     0.182 C 
HETATM   10  C3  SGN C   3      29.058  76.815  16.143  1.00 35.79     0.178 C 
HETATM   11  C4  SGN C   3      30.204  76.282  15.267  1.00 36.62     0.186 C 
HETATM   12  C5  SGN C   3      30.596  77.324  14.227  1.00 39.32     0.181 C 
HETATM   13  O5  SGN C   3      29.448  77.699  13.445  1.00 37.58    -0.349 OA
BRANCH   9  14
HETATM   14  N2  SGN C   3      27.022  78.129  16.172  1.00 29.28    -0.289 N 
ATOM     15  H2  SGN C   3      27.106  79.139  16.294  1.00  0.00     0.175 HD
BRANCH  14  16
HETATM   16  S1  SGN C   3      25.858  77.266  16.964  1.00 27.84     0.205 S 
HETATM   17  O1S SGN C   3      26.429  76.998  18.271  1.00 27.65    -0.578 OA
HETATM   18  O2S SGN C   3      25.669  76.027  16.153  1.00 27.72    -0.578 OA
HETATM   19  O3S SGN C   3      24.604  78.080  17.046  1.00 28.50    -0.578 OA
ENDBRANCH  14  16
ENDBRANCH   9  14
BRANCH  10  20
HETATM   20  O3  SGN C   3      28.547  75.772  16.969  1.00 34.89    -0.391 OA
ATOM     21  H3  SGN C   3      28.889  75.870  17.850  1.00  0.00     0.210 HD
ENDBRANCH  10  20
BRANCH  11  22
HETATM   22  O4  SGN C   3      31.348  76.013  16.098  1.00 37.13    -0.348 OA
BRANCH  22  23
HETATM   23  C1  UAP C   4      31.698  74.677  16.210  1.00 39.64     0.294 C 
HETATM   24  C2  UAP C   4      31.279  74.138  17.566  1.00 38.70     0.228 C 
HETATM   25  C3  UAP C   4      31.752  72.696  17.726  1.00 38.51     0.156 C 
HETATM   26  C4  UAP C   4      31.559  71.803  16.414  1.00 38.14     0.077 C 
HETATM   27  C5  UAP C   4      31.201  72.520  15.263  1.00 38.51     0.228 C 
HETATM   28  O5  UAP C   4      31.009  73.961  15.193  1.00 37.46    -0.343 OA
BRANCH  24  29
HETATM   29  O2  UAP C   4      31.904  74.922  18.633  1.00 40.54    -0.244 OA
BRANCH  29  30
HETATM   30  S   UAP C   4      31.026  75.562  19.809  1.00 40.49     0.252 S 
HETATM   31  O1S UAP C   4      30.316  76.714  19.235  1.00 40.89    -0.572 OA
HETATM   32  O2S UAP C   4      31.965  75.973  20.863  1.00 37.88    -0.572 OA
HETATM   33  O3S UAP C   4      30.098  74.519  20.273  1.00 37.47    -0.572 OA
ENDBRANCH  29  30
ENDBRANCH  24  29
BRANCH  25  34
HETATM   34  O3  UAP C   4      31.053  72.099  18.807  1.00 38.58    -0.393 OA
ATOM     35  H3  UAP C   4      31.282  71.178  18.852  1.00  0.00     0.210 HD
ENDBRANCH  25  34
BRANCH  27  36
HETATM   36  C6  UAP C   4      30.939  71.856  13.956  1.00 37.96     0.203 C 
HETATM   37  O6A UAP C   4      30.444  72.539  13.038  1.00 40.05    -0.646 OA
HETATM   38  O6B UAP C   4      31.225  70.645  13.840  1.00 36.71    -0.646 OA
ENDBRANCH  27  36
ENDBRANCH  22  23
ENDBRANCH  11  22
BRANCH  12  39
HETATM   39  C6  SGN C   3      31.656  76.866  13.264  1.00 42.65     0.227 C 
BRANCH  39  40
HETATM   40  O6  SGN C   3      31.932  78.003  12.418  1.00 51.09    -0.254 OA
BRANCH  40  41
HETATM   41  S2  SGN C   3      33.318  78.754  12.670  1.00 54.80     0.251 S 
HETATM   42  O4S SGN C   3      34.023  78.030  13.743  1.00 54.99    -0.572 OA
HETATM   43  O5S SGN C   3      32.979  80.151  13.075  1.00 53.99    -0.572 OA
HETATM   44  O6S SGN C   3      34.056  78.712  11.415  1.00 55.43    -0.572 OA
ENDBRANCH  40  41
ENDBRANCH  39  40
ENDBRANCH  12  39
ENDBRANCH   7   8
ENDBRANCH   4   7
BRANCH   3  45
HETATM   45  O3  IDS C   2      29.002  79.953  11.560  1.00 39.65    -0.390 OA
ATOM     46  H3  IDS C   2      28.404  80.127  10.843  1.00  0.00     0.210 HD
ENDBRANCH   3  45
BRANCH   5  47
HETATM   47  C6  IDS C   2      30.485  81.518  16.027  1.00 36.10     0.206 C 
HETATM   48  O6A IDS C   2      30.295  82.436  16.855  1.00 32.44    -0.646 OA
HETATM   49  O6B IDS C   2      31.054  80.434  16.300  1.00 33.44    -0.646 OA
ENDBRANCH   5  47
BRANCH   2  50
HETATM   50  O2  IDS C   2      28.000  82.516  11.102  1.00 43.59    -0.244 OA
BRANCH  50  51
HETATM   51  S   IDS C   2      28.616  82.495   9.630  1.00 44.11     0.252 S 
HETATM   52  O1S IDS C   2      30.109  82.438   9.786  1.00 44.48    -0.572 OA
HETATM   53  O2S IDS C   2      28.173  83.735   8.958  1.00 44.29    -0.572 OA
HETATM   54  O3S IDS C   2      28.096  81.311   8.972  1.00 44.74    -0.572 OA
ENDBRANCH  50  51
ENDBRANCH   2  50
BRANCH   1  55
HETATM   55  O4  SGN C   1      29.182  84.395  13.251  1.00 44.73    -0.348 OA
BRANCH  55  56
HETATM   56  C4  SGN C   1      28.561  85.592  13.767  1.00 48.25     0.186 C 
HETATM   57  C3  SGN C   1      29.238  86.003  15.081  1.00 48.43     0.178 C 
HETATM   58  C2  SGN C   1      28.693  87.351  15.552  1.00 48.58     0.181 C 
HETATM   59  C1  SGN C   1      28.795  88.412  14.458  1.00 50.40     0.283 C 
HETATM   60  O5  SGN C   1      28.139  87.957  13.268  1.00 50.82    -0.349 OA
HETATM   61  C5  SGN C   1      28.703  86.732  12.745  1.00 51.58     0.181 C 
BRANCH  57  62
HETATM   62  O3  SGN C   1      28.994  85.024  16.078  1.00 46.09    -0.391 OA
ATOM     63  H3  SGN C   1      29.784  84.515  16.218  1.00  0.00     0.210 HD
ENDBRANCH  57  62
BRANCH  58  64
HETATM   64  N2  SGN C   1      29.405  87.799  16.732  1.00 48.56    -0.289 N 
ATOM     65  H2  SGN C   1      30.386  88.076  16.711  1.00  0.00     0.175 HD
BRANCH  64  66
HETATM   66  S1  SGN C   1      28.497  87.825  18.114  1.00 47.67     0.205 S 
HETATM   67  O1S SGN C   1      28.706  86.523  18.785  1.00 47.59    -0.578 OA
HETATM   68  O2S SGN C   1      27.112  88.009  17.668  1.00 48.55    -0.578 OA
HETATM   69  O3S SGN C   1      28.989  88.962  18.923  1.00 47.08    -0.578 OA
ENDBRANCH  64  66
ENDBRANCH  58  64
BRANCH  59  70
HETATM   70  O1  SGN C   1      30.127  88.660  14.163  1.00 51.36    -0.369 OA
ATOM     71  H1  SGN C   1      30.250  88.689  13.222  1.00  0.00     0.212 HD
ENDBRANCH  59  70
BRANCH  61  72
HETATM   72  C6  SGN C   1      27.985  86.445  11.450  1.00 55.48     0.227 C 
BRANCH  72  73
HETATM   73  O6  SGN C   1      28.218  87.525  10.519  1.00 61.59    -0.254 OA
BRANCH  73  74
HETATM   74  S2  SGN C   1      29.661  87.536   9.843  1.00 65.98     0.251 S 
HETATM   75  O4S SGN C   1      30.534  88.493  10.658  1.00 65.09    -0.572 OA
HETATM   76  O5S SGN C   1      29.475  88.001   8.481  1.00 65.58    -0.572 OA
HETATM   77  O6S SGN C   1      30.202  86.072   9.888  1.00 65.84    -0.572 OA
ENDBRANCH  73  74
ENDBRANCH  72  73
ENDBRANCH  61  72
ENDBRANCH  55  56
ENDBRANCH   1  55
TORSDOF 27
ENDMDL
MODEL 11
REMARK VINA RESULT:      -7.0      8.537     18.326
REMARK  27 active torsions:
REMARK  status: ('A' for Active; 'I' for Inactive)
REMARK    1  A    between atoms: C1_1  and  O1_2 
REMARK    2  A    between atoms: S1_5  and  N2_7 
REMARK    3  A    between atoms: C2_6  and  N2_7 
REMARK    4  A    between atoms: S2_10  and  O6_22 
REMARK    5  A    between atoms: C3_11  and  O3_12 
REMARK    6  A    between atoms: C4_15  and  O4_16 
REMARK    7  A    between atoms: O4_16  and  C1_24 
REMARK    8  A    between atoms: C5_18  and  C6_21 
REMARK    9  A    between atoms: C6_21  and  O6_22 
REMARK   10  A    between atoms: C2_26  and  O2_27 
REMARK   11  A    between atoms: O2_27  and  S_40 
REMARK   12  A    between atoms: C3_29  and  O3_30 
REMARK   13  A    between atoms: C4_33  and  O4_34 
REMARK   14  A    between atoms: O4_34  and  C1_41 
REMARK   15  A    between atoms: C5_35  and  C6_37 
REMARK   16  A    between atoms: S1_43  and  N2_45 
REMARK   17  A    between atoms: C2_44  and  N2_45 
REMARK   18  A    between atoms: S2_48  and  O6_60 
REMARK   19  A    between atoms: C3_49  and  O3_50 
REMARK   20  A    between atoms: C4_53  and  O4_54 
REMARK   21  A    between atoms: O4_54  and  C1_62 
REMARK   22  A    between atoms: C5_56  and  C6_59 
REMARK   23  A    between atoms: C6_59  and  O6_60 
REMARK   24  A    between atoms: C2_64  and  O2_65 
REMARK   25  A    between atoms: O2_65  and  S_77 
REMARK   26  A    between atoms: C3_67  and  O3_68 
REMARK   27  A    between atoms: C5_72  and  C6_74 
ROOT
HETATM    1  C1  IDS C   2      36.094  65.654  22.771  1.00 40.81     0.294 C 
HETATM    2  C2  IDS C   2      34.659  65.902  22.300  1.00 40.20     0.231 C 
HETATM    3  C3  IDS C   2      34.407  67.389  22.069  1.00 39.01     0.185 C 
HETATM    4  C4  IDS C   2      34.624  68.195  23.366  1.00 37.65     0.195 C 
HETATM    5  C5  IDS C   2      35.507  67.396  24.333  1.00 35.99     0.257 C 
HETATM    6  O5  IDS C   2      36.567  66.740  23.598  1.00 39.00    -0.340 OA
ENDROOT
BRANCH   4   7
HETATM    7  O4  IDS C   2      35.251  69.465  23.056  1.00 35.98    -0.348 OA
BRANCH   7   8
HETATM    8  C1  SGN C   3      36.023  69.501  21.886  1.00 35.40     0.287 C 
HETATM    9  C2  SGN C   3      37.060  70.636  21.971  1.00 33.71     0.182 C 
HETATM   10  C3  SGN C   3      36.421  72.021  21.820  1.00 35.79     0.178 C 
HETATM   11  C4  SGN C   3      35.439  72.075  20.636  1.00 36.62     0.186 C 
HETATM   12  C5  SGN C   3      34.485  70.889  20.693  1.00 39.32     0.181 C 
HETATM   13  O5  SGN C   3      35.228  69.657  20.724  1.00 37.58    -0.349 OA
BRANCH   9  14
HETATM   14  N2  SGN C   3      37.739  70.574  23.246  1.00 29.28    -0.289 N 
ATOM     15  H2  SGN C   3      37.271  70.214  24.077  1.00  0.00     0.175 HD
BRANCH  14  16
HETATM   16  S1  SGN C   3      39.301  71.107  23.308  1.00 27.84     0.205 S 
HETATM   17  O1S SGN C   3      39.205  72.457  23.832  1.00 27.65    -0.578 OA
HETATM   18  O2S SGN C   3      39.785  71.069  21.896  1.00 27.72    -0.578 OA
HETATM   19  O3S SGN C   3      40.100  70.207  24.198  1.00 28.50    -0.578 OA
ENDBRANCH  14  16
ENDBRANCH   9  14
BRANCH  10  20
HETATM   20  O3  SGN C   3      37.443  73.001  21.652  1.00 34.89    -0.391 OA
ATOM     21  H3  SGN C   3      37.370  73.655  22.337  1.00  0.00     0.210 HD
ENDBRANCH  10  20
BRANCH  11  22
HETATM   22  O4  SGN C   3      34.667  73.287  20.717  1.00 37.13    -0.348 OA
BRANCH  22  23
HETATM   23  C1  UAP C   4      34.799  74.147  19.638  1.00 39.64     0.294 C 
HETATM   24  C2  UAP C   4      33.560  75.016  19.510  1.00 38.70     0.228 C 
HETATM   25  C3  UAP C   4      33.664  75.893  18.265  1.00 38.51     0.156 C 
HETATM   26  C4  UAP C   4      35.114  76.526  18.038  1.00 38.14     0.077 C 
HETATM   27  C5  UAP C   4      36.117  76.010  18.872  1.00 38.51     0.228 C 
HETATM   28  O5  UAP C   4      35.926  74.978  19.881  1.00 37.46    -0.343 OA
BRANCH  24  29
HETATM   29  O2  UAP C   4      32.371  74.177  19.353  1.00 40.54    -0.244 OA
BRANCH  29  30
HETATM   30  S   UAP C   4      30.917  74.728  19.730  1.00 40.49     0.252 S 
HETATM   31  O1S UAP C   4      30.196  73.625  20.383  1.00 40.89    -0.572 OA
HETATM   32  O2S UAP C   4      30.273  75.126  18.470  1.00 37.88    -0.572 OA
HETATM   33  O3S UAP C   4      31.109  75.872  20.637  1.00 37.47    -0.572 OA
ENDBRANCH  29  30
ENDBRANCH  24  29
BRANCH  25  34
HETATM   34  O3  UAP C   4      32.707  76.937  18.355  1.00 38.58    -0.393 OA
ATOM     35  H3  UAP C   4      32.706  77.280  19.241  1.00  0.00     0.210 HD
ENDBRANCH  25  34
BRANCH  27  36
HETATM   36  C6  UAP C   4      37.521  76.503  18.835  1.00 37.96     0.203 C 
HETATM   37  O6A UAP C   4      37.711  77.732  18.739  1.00 40.05    -0.646 OA
HETATM   38  O6B UAP C   4      38.445  75.664  18.899  1.00 36.71    -0.646 OA
ENDBRANCH  27  36
ENDBRANCH  22  23
ENDBRANCH  11  22
BRANCH  12  39
HETATM   39  C6  SGN C   3      33.536  70.804  19.530  1.00 42.65     0.227 C 
BRANCH  39  40
HETATM   40  O6  SGN C   3      32.990  69.467  19.569  1.00 51.09    -0.254 OA
BRANCH  40  41
HETATM   41  S2  SGN C   3      32.924  68.689  18.178  1.00 54.80     0.251 S 
HETATM   42  O4S SGN C   3      34.124  69.060  17.407  1.00 54.99    -0.572 OA
HETATM   43  O5S SGN C   3      31.670  69.133  17.499  1.00 53.99    -0.572 OA
HETATM   44  O6S SGN C   3      32.902  67.266  18.490  1.00 55.43    -0.572 OA
ENDBRANCH  40  41
ENDBRANCH  39  40
ENDBRANCH  12  39
ENDBRANCH   7   8
ENDBRANCH   4   7
BRANCH   3  45
HETATM   45  O3  IDS C   2      33.078  67.577  21.601  1.00 39.65    -0.390 OA
ATOM     46  H3  IDS C   2      32.776  66.783  21.176  1.00  0.00     0.210 HD
ENDBRANCH   3  45
BRANCH   5  47
HETATM   47  C6  IDS C   2      36.148  68.216  25.445  1.00 36.10     0.206 C 
HETATM   48  O6A IDS C   2      37.371  68.461  25.353  1.00 32.44    -0.646 OA
HETATM   49  O6B IDS C   2      35.420  68.616  26.385  1.00 33.44    -0.646 OA
ENDBRANCH   5  47
BRANCH   2  50
HETATM   50  O2  IDS C   2      34.426  65.199  21.045  1.00 43.59    -0.244 OA
BRANCH  50  51
HETATM   51  S   IDS C   2      33.231  64.146  20.941  1.00 44.11     0.252 S 
HETATM   52  O1S IDS C   2      33.440  63.142  22.039  1.00 44.48    -0.572 OA
HETATM   53  O2S IDS C   2      33.312  63.529  19.600  1.00 44.29    -0.572 OA
HETATM   54  O3S IDS C   2      31.997  64.890  21.118  1.00 44.74    -0.572 OA
ENDBRANCH  50  51
ENDBRANCH   2  50
BRANCH   1  55
HETATM   55  O4  SGN C   1      36.142  64.481  23.512  1.00 44.73    -0.348 OA
BRANCH  55  56
HETATM   56  C4  SGN C   1      37.351  64.207  24.254  1.00 48.25     0.186 C 
HETATM   57  C3  SGN C   1      37.106  63.055  25.236  1.00 48.43     0.178 C 
HETATM   58  C2  SGN C   1      38.417  62.655  25.912  1.00 48.58     0.181 C 
HETATM   59  C1  SGN C   1      39.510  62.357  24.887  1.00 50.40     0.283 C 
HETATM   60  O5  SGN C   1      39.680  63.477  24.009  1.00 50.82    -0.349 OA
HETATM   61  C5  SGN C   1      38.476  63.814  23.282  1.00 51.58     0.181 C 
BRANCH  57  62
HETATM   62  O3  SGN C   1      36.171  63.454  26.226  1.00 46.09    -0.391 OA
ATOM     63  H3  SGN C   1      36.451  64.278  26.608  1.00  0.00     0.210 HD
ENDBRANCH  57  62
BRANCH  58  64
HETATM   64  N2  SGN C   1      38.216  61.497  26.759  1.00 48.56    -0.289 N 
ATOM     65  H2  SGN C   1      37.682  60.681  26.460  1.00  0.00     0.175 HD
BRANCH  64  66
HETATM   66  S1  SGN C   1      38.924  61.605  28.251  1.00 47.67     0.205 S 
HETATM   67  O1S SGN C   1      40.041  60.635  28.262  1.00 47.59    -0.578 OA
HETATM   68  O2S SGN C   1      37.870  61.257  29.209  1.00 48.55    -0.578 OA
HETATM   69  O3S SGN C   1      39.387  63.002  28.399  1.00 47.08    -0.578 OA
ENDBRANCH  64  66
ENDBRANCH  58  64
BRANCH  59  70
HETATM   70  O1  SGN C   1      39.157  61.250  24.130  1.00 51.36    -0.369 OA
ATOM     71  H1  SGN C   1      38.273  61.353  23.798  1.00  0.00     0.212 HD
ENDBRANCH  59  70
BRANCH  61  72
HETATM   72  C6  SGN C   1      38.843  64.929  22.334  1.00 55.48     0.227 C 
BRANCH  72  73
HETATM   73  O6  SGN C   1      39.884  65.739  22.922  1.00 61.59    -0.254 OA
BRANCH  73  74
HETATM   74  S2  SGN C   1      40.384  66.955  22.021  1.00 65.98     0.251 S 
HETATM   75  O4S SGN C   1      40.894  66.363  20.705  1.00 65.09    -0.572 OA
HETATM   76  O5S SGN C   1      41.443  67.612  22.764  1.00 65.58    -0.572 OA
HETATM   77  O6S SGN C   1      39.159  67.897  21.799  1.00 65.84    -0.572 OA
ENDBRANCH  73  74
ENDBRANCH  72  73
ENDBRANCH  61  72
ENDBRANCH  55  56
ENDBRANCH   1  55
TORSDOF 27
ENDMDL
MODEL 12
REMARK VINA RESULT:      -7.0      3.349      6.613
REMARK  27 active torsions:
REMARK  status: ('A' for Active; 'I' for Inactive)
REMARK    1  A    between atoms: C1_1  and  O1_2 
REMARK    2  A    between atoms: S1_5  and  N2_7 
REMARK    3  A    between atoms: C2_6  and  N2_7 
REMARK    4  A    between atoms: S2_10  and  O6_22 
REMARK    5  A    between atoms: C3_11  and  O3_12 
REMARK    6  A    between atoms: C4_15  and  O4_16 
REMARK    7  A    between atoms: O4_16  and  C1_24 
REMARK    8  A    between atoms: C5_18  and  C6_21 
REMARK    9  A    between atoms: C6_21  and  O6_22 
REMARK   10  A    between atoms: C2_26  and  O2_27 
REMARK   11  A    between atoms: O2_27  and  S_40 
REMARK   12  A    between atoms: C3_29  and  O3_30 
REMARK   13  A    between atoms: C4_33  and  O4_34 
REMARK   14  A    between atoms: O4_34  and  C1_41 
REMARK   15  A    between atoms: C5_35  and  C6_37 
REMARK   16  A    between atoms: S1_43  and  N2_45 
REMARK   17  A    between atoms: C2_44  and  N2_45 
REMARK   18  A    between atoms: S2_48  and  O6_60 
REMARK   19  A    between atoms: C3_49  and  O3_50 
REMARK   20  A    between atoms: C4_53  and  O4_54 
REMARK   21  A    between atoms: O4_54  and  C1_62 
REMARK   22  A    between atoms: C5_56  and  C6_59 
REMARK   23  A    between atoms: C6_59  and  O6_60 
REMARK   24  A    between atoms: C2_64  and  O2_65 
REMARK   25  A    between atoms: O2_65  and  S_77 
REMARK   26  A    between atoms: C3_67  and  O3_68 
REMARK   27  A    between atoms: C5_72  and  C6_74 
ROOT
HETATM    1  C1  IDS C   2      28.433  80.233  13.606  1.00 40.81     0.294 C 
HETATM    2  C2  IDS C   2      29.228  80.904  14.729  1.00 40.20     0.231 C 
HETATM    3  C3  IDS C   2      29.958  79.867  15.578  1.00 39.01     0.185 C 
HETATM    4  C4  IDS C   2      28.963  78.883  16.226  1.00 37.65     0.195 C 
HETATM    5  C5  IDS C   2      27.641  78.891  15.448  1.00 35.99     0.257 C 
HETATM    6  O5  IDS C   2      27.913  78.953  14.027  1.00 39.00    -0.340 OA
ENDROOT
BRANCH   4   7
HETATM    7  O4  IDS C   2      29.527  77.548  16.234  1.00 35.98    -0.348 OA
BRANCH   7   8
HETATM    8  C1  SGN C   3      30.919  77.466  16.092  1.00 35.40     0.287 C 
HETATM    9  C2  SGN C   3      31.279  76.508  14.943  1.00 33.71     0.182 C 
HETATM   10  C3  SGN C   3      31.040  75.039  15.313  1.00 35.79     0.178 C 
HETATM   11  C4  SGN C   3      31.612  74.695  16.699  1.00 36.62     0.186 C 
HETATM   12  C5  SGN C   3      31.170  75.735  17.720  1.00 39.32     0.181 C 
HETATM   13  O5  SGN C   3      31.557  77.051  17.287  1.00 37.58    -0.349 OA
BRANCH   9  14
HETATM   14  N2  SGN C   3      30.483  76.830  13.779  1.00 29.28    -0.289 N 
ATOM     15  H2  SGN C   3      29.519  77.148  13.870  1.00  0.00     0.175 HD
BRANCH  14  16
HETATM   16  S1  SGN C   3      31.192  76.662  12.296  1.00 27.84     0.205 S 
HETATM   17  O1S SGN C   3      30.665  77.764  11.514  1.00 27.65    -0.578 OA
HETATM   18  O2S SGN C   3      30.740  75.331  11.794  1.00 27.72    -0.578 OA
HETATM   19  O3S SGN C   3      32.680  76.728  12.445  1.00 28.50    -0.578 OA
ENDBRANCH  14  16
ENDBRANCH   9  14
BRANCH  10  20
HETATM   20  O3  SGN C   3      31.623  74.198  14.320  1.00 34.89    -0.391 OA
ATOM     21  H3  SGN C   3      31.092  74.222  13.533  1.00  0.00     0.210 HD
ENDBRANCH  10  20
BRANCH  11  22
HETATM   22  O4  SGN C   3      31.115  73.409  17.109  1.00 37.13    -0.348 OA
BRANCH  22  23
HETATM   23  C1  UAP C   4      31.820  72.318  16.626  1.00 39.64     0.294 C 
HETATM   24  C2  UAP C   4      31.966  71.267  17.711  1.00 38.70     0.228 C 
HETATM   25  C3  UAP C   4      32.825  70.111  17.208  1.00 38.51     0.156 C 
HETATM   26  C4  UAP C   4      32.503  69.671  15.705  1.00 38.14     0.077 C 
HETATM   27  C5  UAP C   4      31.654  70.543  15.008  1.00 38.51     0.228 C 
HETATM   28  O5  UAP C   4      31.079  71.769  15.544  1.00 37.46    -0.343 OA
BRANCH  24  29
HETATM   29  O2  UAP C   4      32.644  71.839  18.876  1.00 40.54    -0.244 OA
BRANCH  29  30
HETATM   30  S   UAP C   4      32.103  71.572  20.359  1.00 40.49     0.252 S 
HETATM   31  O1S UAP C   4      32.618  72.659  21.205  1.00 40.89    -0.572 OA
HETATM   32  O2S UAP C   4      32.632  70.264  20.775  1.00 37.88    -0.572 OA
HETATM   33  O3S UAP C   4      30.633  71.577  20.291  1.00 37.47    -0.572 OA
ENDBRANCH  29  30
ENDBRANCH  24  29
BRANCH  25  34
HETATM   34  O3  UAP C   4      32.650  68.997  18.070  1.00 38.58    -0.393 OA
ATOM     35  H3  UAP C   4      31.721  68.856  18.208  1.00  0.00     0.210 HD
ENDBRANCH  25  34
BRANCH  27  36
HETATM   36  C6  UAP C   4      31.209  70.280  13.612  1.00 37.96     0.203 C 
HETATM   37  O6A UAP C   4      31.739  69.337  12.993  1.00 40.05    -0.646 OA
HETATM   38  O6B UAP C   4      30.327  71.019  13.123  1.00 36.71    -0.646 OA
ENDBRANCH  27  36
ENDBRANCH  22  23
ENDBRANCH  11  22
BRANCH  12  39
HETATM   39  C6  SGN C   3      31.746  75.535  19.094  1.00 42.65     0.227 C 
BRANCH  39  40
HETATM   40  O6  SGN C   3      31.090  76.505  19.938  1.00 51.09    -0.254 OA
BRANCH  40  41
HETATM   41  S2  SGN C   3      29.602  76.153  20.397  1.00 54.80     0.251 S 
HETATM   42  O4S SGN C   3      28.682  76.800  19.444  1.00 54.99    -0.572 OA
HETATM   43  O5S SGN C   3      29.441  76.697  21.778  1.00 53.99    -0.572 OA
HETATM   44  O6S SGN C   3      29.481  74.702  20.363  1.00 55.43    -0.572 OA
ENDBRANCH  40  41
ENDBRANCH  39  40
ENDBRANCH  12  39
ENDBRANCH   7   8
ENDBRANCH   4   7
BRANCH   3  45
HETATM   45  O3  IDS C   2      30.711  80.527  16.587  1.00 39.65    -0.390 OA
ATOM     46  H3  IDS C   2      31.449  80.973  16.191  1.00  0.00     0.210 HD
ENDBRANCH   3  45
BRANCH   5  47
HETATM   47  C6  IDS C   2      26.740  77.689  15.699  1.00 36.10     0.206 C 
HETATM   48  O6A IDS C   2      26.443  77.425  16.885  1.00 32.44    -0.646 OA
HETATM   49  O6B IDS C   2      26.329  77.036  14.710  1.00 33.44    -0.646 OA
ENDBRANCH   5  47
BRANCH   2  50
HETATM   50  O2  IDS C   2      30.219  81.805  14.157  1.00 43.59    -0.244 OA
BRANCH  50  51
HETATM   51  S   IDS C   2      30.255  83.333  14.618  1.00 44.11     0.252 S 
HETATM   52  O1S IDS C   2      29.759  83.370  16.036  1.00 44.48    -0.572 OA
HETATM   53  O2S IDS C   2      29.372  84.083  13.700  1.00 44.29    -0.572 OA
HETATM   54  O3S IDS C   2      31.635  83.772  14.517  1.00 44.74    -0.572 OA
ENDBRANCH  50  51
ENDBRANCH   2  50
BRANCH   1  55
HETATM   55  O4  SGN C   1      27.367  81.045  13.244  1.00 44.73    -0.348 OA
BRANCH  55  56
HETATM   56  C4  SGN C   1      26.760  80.819  11.953  1.00 48.25     0.186 C 
HETATM   57  C3  SGN C   1      25.295  80.404  12.134  1.00 48.43     0.178 C 
HETATM   58  C2  SGN C   1      24.604  80.314  10.774  1.00 48.58     0.181 C 
HETATM   59  C1  SGN C   1      24.776  81.601   9.970  1.00 50.40     0.283 C 
HETATM   60  O5  SGN C   1      26.168  81.920   9.842  1.00 50.82    -0.349 OA
HETATM   61  C5  SGN C   1      26.823  82.109  11.118  1.00 51.58     0.181 C 
BRANCH  57  62
HETATM   62  O3  SGN C   1      25.225  79.143  12.780  1.00 46.09    -0.391 OA
ATOM     63  H3  SGN C   1      26.010  79.013  13.300  1.00  0.00     0.210 HD
ENDBRANCH  57  62
BRANCH  58  64
HETATM   64  N2  SGN C   1      23.193  80.031  10.942  1.00 48.56    -0.289 N 
ATOM     65  H2  SGN C   1      22.551  80.680  11.397  1.00  0.00     0.175 HD
BRANCH  64  66
HETATM   66  S1  SGN C   1      22.708  78.570  10.335  1.00 47.67     0.205 S 
HETATM   67  O1S SGN C   1      22.142  78.834   8.994  1.00 47.59    -0.578 OA
HETATM   68  O2S SGN C   1      21.704  78.070  11.279  1.00 48.55    -0.578 OA
HETATM   69  O3S SGN C   1      23.912  77.713  10.280  1.00 47.08    -0.578 OA
ENDBRANCH  64  66
ENDBRANCH  58  64
BRANCH  59  70
HETATM   70  O1  SGN C   1      24.138  82.650  10.615  1.00 51.36    -0.369 OA
ATOM     71  H1  SGN C   1      23.940  82.406  11.511  1.00  0.00     0.212 HD
ENDBRANCH  59  70
BRANCH  61  72
HETATM   72  C6  SGN C   1      28.237  82.538  10.816  1.00 55.48     0.227 C 
BRANCH  72  73
HETATM   73  O6  SGN C   1      28.623  82.051   9.513  1.00 61.59    -0.254 OA
BRANCH  73  74
HETATM   74  S2  SGN C   1      29.667  80.848   9.522  1.00 65.98     0.251 S 
HETATM   75  O4S SGN C   1      28.860  79.549   9.460  1.00 65.09    -0.572 OA
HETATM   76  O5S SGN C   1      30.416  80.959  10.761  1.00 65.58    -0.572 OA
HETATM   77  O6S SGN C   1      30.584  81.025   8.271  1.00 65.84    -0.572 OA
ENDBRANCH  73  74
ENDBRANCH  72  73
ENDBRANCH  61  72
ENDBRANCH  55  56
ENDBRANCH   1  55
TORSDOF 27
ENDMDL
MODEL 13
REMARK VINA RESULT:      -7.0      2.790      5.648
REMARK  27 active torsions:
REMARK  status: ('A' for Active; 'I' for Inactive)
REMARK    1  A    between atoms: C1_1  and  O1_2 
REMARK    2  A    between atoms: S1_5  and  N2_7 
REMARK    3  A    between atoms: C2_6  and  N2_7 
REMARK    4  A    between atoms: S2_10  and  O6_22 
REMARK    5  A    between atoms: C3_11  and  O3_12 
REMARK    6  A    between atoms: C4_15  and  O4_16 
REMARK    7  A    between atoms: O4_16  and  C1_24 
REMARK    8  A    between atoms: C5_18  and  C6_21 
REMARK    9  A    between atoms: C6_21  and  O6_22 
REMARK   10  A    between atoms: C2_26  and  O2_27 
REMARK   11  A    between atoms: O2_27  and  S_40 
REMARK   12  A    between atoms: C3_29  and  O3_30 
REMARK   13  A    between atoms: C4_33  and  O4_34 
REMARK   14  A    between atoms: O4_34  and  C1_41 
REMARK   15  A    between atoms: C5_35  and  C6_37 
REMARK   16  A    between atoms: S1_43  and  N2_45 
REMARK   17  A    between atoms: C2_44  and  N2_45 
REMARK   18  A    between atoms: S2_48  and  O6_60 
REMARK   19  A    between atoms: C3_49  and  O3_50 
REMARK   20  A    between atoms: C4_53  and  O4_54 
REMARK   21  A    between atoms: O4_54  and  C1_62 
REMARK   22  A    between atoms: C5_56  and  C6_59 
REMARK   23  A    between atoms: C6_59  and  O6_60 
REMARK   24  A    between atoms: C2_64  and  O2_65 
REMARK   25  A    between atoms: O2_65  and  S_77 
REMARK   26  A    between atoms: C3_67  and  O3_68 
REMARK   27  A    between atoms: C5_72  and  C6_74 
ROOT
HETATM    1  C1  IDS C   2      29.183  80.239  13.211  1.00 40.81     0.294 C 
HETATM    2  C2  IDS C   2      29.638  80.894  14.517  1.00 40.20     0.231 C 
HETATM    3  C3  IDS C   2      30.263  79.866  15.457  1.00 39.01     0.185 C 
HETATM    4  C4  IDS C   2      29.255  78.755  15.811  1.00 37.65     0.195 C 
HETATM    5  C5  IDS C   2      28.144  78.703  14.754  1.00 35.99     0.257 C 
HETATM    6  O5  IDS C   2      28.716  78.891  13.438  1.00 39.00    -0.340 OA
ENDROOT
BRANCH   4   7
HETATM    7  O4  IDS C   2      29.935  77.477  15.879  1.00 35.98    -0.348 OA
BRANCH   7   8
HETATM    8  C1  SGN C   3      31.206  77.487  16.472  1.00 35.40     0.287 C 
HETATM    9  C2  SGN C   3      32.150  76.536  15.715  1.00 33.71     0.182 C 
HETATM   10  C3  SGN C   3      31.828  75.061  15.981  1.00 35.79     0.178 C 
HETATM   11  C4  SGN C   3      31.626  74.778  17.479  1.00 36.62     0.186 C 
HETATM   12  C5  SGN C   3      30.672  75.802  18.081  1.00 39.32     0.181 C 
HETATM   13  O5  SGN C   3      31.161  77.134  17.843  1.00 37.58    -0.349 OA
BRANCH   9  14
HETATM   14  N2  SGN C   3      32.049  76.785  14.294  1.00 29.28    -0.289 N 
ATOM     15  H2  SGN C   3      31.229  76.490  13.764  1.00  0.00     0.175 HD
BRANCH  14  16
HETATM   16  S1  SGN C   3      33.307  77.564  13.560  1.00 27.84     0.205 S 
HETATM   17  O1S SGN C   3      34.365  77.563  14.554  1.00 27.65    -0.578 OA
HETATM   18  O2S SGN C   3      32.799  78.935  13.260  1.00 27.72    -0.578 OA
HETATM   19  O3S SGN C   3      33.693  76.824  12.317  1.00 28.50    -0.578 OA
ENDBRANCH  14  16
ENDBRANCH   9  14
BRANCH  10  20
HETATM   20  O3  SGN C   3      32.878  74.245  15.467  1.00 34.89    -0.391 OA
ATOM     21  H3  SGN C   3      33.053  73.535  16.073  1.00  0.00     0.210 HD
ENDBRANCH  10  20
BRANCH  11  22
HETATM   22  O4  SGN C   3      31.052  73.468  17.640  1.00 37.13    -0.348 OA
BRANCH  22  23
HETATM   23  C1  UAP C   4      31.881  72.526  18.228  1.00 39.64     0.294 C 
HETATM   24  C2  UAP C   4      32.502  71.640  17.162  1.00 38.70     0.228 C 
HETATM   25  C3  UAP C   4      33.336  70.542  17.816  1.00 38.51     0.156 C 
HETATM   26  C4  UAP C   4      34.217  71.046  19.051  1.00 38.14     0.077 C 
HETATM   27  C5  UAP C   4      33.925  72.347  19.486  1.00 38.51     0.228 C 
HETATM   28  O5  UAP C   4      32.914  73.223  18.911  1.00 37.46    -0.343 OA
BRANCH  24  29
HETATM   29  O2  UAP C   4      31.452  70.982  16.381  1.00 40.54    -0.244 OA
BRANCH  29  30
HETATM   30  S   UAP C   4      31.404  71.116  14.787  1.00 40.49     0.252 S 
HETATM   31  O1S UAP C   4      30.601  72.309  14.481  1.00 40.89    -0.572 OA
HETATM   32  O2S UAP C   4      30.771  69.891  14.277  1.00 37.88    -0.572 OA
HETATM   33  O3S UAP C   4      32.794  71.254  14.322  1.00 37.47    -0.572 OA
ENDBRANCH  29  30
ENDBRANCH  24  29
BRANCH  25  34
HETATM   34  O3  UAP C   4      34.188  69.966  16.838  1.00 38.58    -0.393 OA
ATOM     35  H3  UAP C   4      33.690  69.817  16.043  1.00  0.00     0.210 HD
ENDBRANCH  25  34
BRANCH  27  36
HETATM   36  C6  UAP C   4      34.667  73.004  20.598  1.00 37.96     0.203 C 
HETATM   37  O6A UAP C   4      34.533  72.543  21.749  1.00 40.05    -0.646 OA
HETATM   38  O6B UAP C   4      35.388  73.988  20.327  1.00 36.71    -0.646 OA
ENDBRANCH  27  36
ENDBRANCH  22  23
ENDBRANCH  11  22
BRANCH  12  39
HETATM   39  C6  SGN C   3      30.472  75.663  19.565  1.00 42.65     0.227 C 
BRANCH  39  40
HETATM   40  O6  SGN C   3      29.063  75.406  19.747  1.00 51.09    -0.254 OA
BRANCH  40  41
HETATM   41  S2  SGN C   3      28.418  75.931  21.109  1.00 54.80     0.251 S 
HETATM   42  O4S SGN C   3      29.474  76.643  21.852  1.00 54.99    -0.572 OA
HETATM   43  O5S SGN C   3      27.938  74.725  21.847  1.00 53.99    -0.572 OA
HETATM   44  O6S SGN C   3      27.322  76.820  20.743  1.00 55.43    -0.572 OA
ENDBRANCH  40  41
ENDBRANCH  39  40
ENDBRANCH  12  39
ENDBRANCH   7   8
ENDBRANCH   4   7
BRANCH   3  45
HETATM   45  O3  IDS C   2      30.703  80.515  16.642  1.00 39.65    -0.390 OA
ATOM     46  H3  IDS C   2      31.293  81.224  16.415  1.00  0.00     0.210 HD
ENDBRANCH   3  45
BRANCH   5  47
HETATM   47  C6  IDS C   2      27.336  77.413  14.733  1.00 36.10     0.206 C 
HETATM   48  O6A IDS C   2      27.739  76.489  13.993  1.00 32.44    -0.646 OA
HETATM   49  O6B IDS C   2      26.322  77.333  15.467  1.00 33.44    -0.646 OA
ENDBRANCH   5  47
BRANCH   2  50
HETATM   50  O2  IDS C   2      30.635  81.917  14.232  1.00 43.59    -0.244 OA
BRANCH  50  51
HETATM   51  S   IDS C   2      30.828  83.135  15.246  1.00 44.11     0.252 S 
HETATM   52  O1S IDS C   2      30.970  84.376  14.412  1.00 44.48    -0.572 OA
HETATM   53  O2S IDS C   2      32.044  82.852  16.037  1.00 44.29    -0.572 OA
HETATM   54  O3S IDS C   2      29.641  83.179  16.081  1.00 44.74    -0.572 OA
ENDBRANCH  50  51
ENDBRANCH   2  50
BRANCH   1  55
HETATM   55  O4  SGN C   1      28.148  80.979  12.658  1.00 44.73    -0.348 OA
BRANCH  55  56
HETATM   56  C4  SGN C   1      27.721  82.165  13.363  1.00 48.25     0.186 C 
HETATM   57  C3  SGN C   1      28.006  83.407  12.510  1.00 48.43     0.178 C 
HETATM   58  C2  SGN C   1      27.419  84.649  13.178  1.00 48.58     0.181 C 
HETATM   59  C1  SGN C   1      25.938  84.463  13.506  1.00 50.40     0.283 C 
HETATM   60  O5  SGN C   1      25.753  83.287  14.304  1.00 50.82    -0.349 OA
HETATM   61  C5  SGN C   1      26.212  82.082  13.650  1.00 51.58     0.181 C 
BRANCH  57  62
HETATM   62  O3  SGN C   1      29.406  83.576  12.355  1.00 46.09    -0.391 OA
ATOM     63  H3  SGN C   1      29.730  84.155  13.036  1.00  0.00     0.210 HD
ENDBRANCH  57  62
BRANCH  58  64
HETATM   64  N2  SGN C   1      27.587  85.809  12.327  1.00 48.56    -0.289 N 
ATOM     65  H2  SGN C   1      27.622  85.745  11.310  1.00  0.00     0.175 HD
BRANCH  64  66
HETATM   66  S1  SGN C   1      27.718  87.244  13.139  1.00 47.67     0.205 S 
HETATM   67  O1S SGN C   1      27.986  86.909  14.555  1.00 47.59    -0.578 OA
HETATM   68  O2S SGN C   1      26.426  87.914  12.958  1.00 48.55    -0.578 OA
HETATM   69  O3S SGN C   1      28.834  87.985  12.513  1.00 47.08    -0.578 OA
ENDBRANCH  64  66
ENDBRANCH  58  64
BRANCH  59  70
HETATM   70  O1  SGN C   1      25.210  84.322  12.333  1.00 51.36    -0.369 OA
ATOM     71  H1  SGN C   1      24.284  84.434  12.513  1.00  0.00     0.212 HD
ENDBRANCH  59  70
BRANCH  61  72
HETATM   72  C6  SGN C   1      25.855  80.934  14.561  1.00 55.48     0.227 C 
BRANCH  72  73
HETATM   73  O6  SGN C   1      24.840  81.358  15.496  1.00 61.59    -0.254 OA
BRANCH  73  74
HETATM   74  S2  SGN C   1      23.353  80.920  15.125  1.00 65.98     0.251 S 
HETATM   75  O4S SGN C   1      22.820  80.093  16.298  1.00 65.09    -0.572 OA
HETATM   76  O5S SGN C   1      23.445  80.134  13.908  1.00 65.58    -0.572 OA
HETATM   77  O6S SGN C   1      22.528  82.227  14.911  1.00 65.84    -0.572 OA
ENDBRANCH  73  74
ENDBRANCH  72  73
ENDBRANCH  61  72
ENDBRANCH  55  56
ENDBRANCH   1  55
TORSDOF 27
ENDMDL
MODEL 14
REMARK VINA RESULT:      -6.9      6.593     15.409
REMARK  27 active torsions:
REMARK  status: ('A' for Active; 'I' for Inactive)
REMARK    1  A    between atoms: C1_1  and  O1_2 
REMARK    2  A    between atoms: S1_5  and  N2_7 
REMARK    3  A    between atoms: C2_6  and  N2_7 
REMARK    4  A    between atoms: S2_10  and  O6_22 
REMARK    5  A    between atoms: C3_11  and  O3_12 
REMARK    6  A    between atoms: C4_15  and  O4_16 
REMARK    7  A    between atoms: O4_16  and  C1_24 
REMARK    8  A    between atoms: C5_18  and  C6_21 
REMARK    9  A    between atoms: C6_21  and  O6_22 
REMARK   10  A    between atoms: C2_26  and  O2_27 
REMARK   11  A    between atoms: O2_27  and  S_40 
REMARK   12  A    between atoms: C3_29  and  O3_30 
REMARK   13  A    between atoms: C4_33  and  O4_34 
REMARK   14  A    between atoms: O4_34  and  C1_41 
REMARK   15  A    between atoms: C5_35  and  C6_37 
REMARK   16  A    between atoms: S1_43  and  N2_45 
REMARK   17  A    between atoms: C2_44  and  N2_45 
REMARK   18  A    between atoms: S2_48  and  O6_60 
REMARK   19  A    between atoms: C3_49  and  O3_50 
REMARK   20  A    between atoms: C4_53  and  O4_54 
REMARK   21  A    between atoms: O4_54  and  C1_62 
REMARK   22  A    between atoms: C5_56  and  C6_59 
REMARK   23  A    between atoms: C6_59  and  O6_60 
REMARK   24  A    between atoms: C2_64  and  O2_65 
REMARK   25  A    between atoms: O2_65  and  S_77 
REMARK   26  A    between atoms: C3_67  and  O3_68 
REMARK   27  A    between atoms: C5_72  and  C6_74 
ROOT
HETATM    1  C1  IDS C   2      37.389  70.980  21.516  1.00 40.81     0.294 C 
HETATM    2  C2  IDS C   2      38.235  72.222  21.223  1.00 40.20     0.231 C 
HETATM    3  C3  IDS C   2      37.422  73.275  20.475  1.00 39.01     0.185 C 
HETATM    4  C4  IDS C   2      36.909  72.724  19.130  1.00 37.65     0.195 C 
HETATM    5  C5  IDS C   2      36.902  71.191  19.163  1.00 35.99     0.257 C 
HETATM    6  O5  IDS C   2      36.439  70.733  20.456  1.00 39.00    -0.340 OA
ENDROOT
BRANCH   4   7
HETATM    7  O4  IDS C   2      35.572  73.221  18.873  1.00 35.98    -0.348 OA
BRANCH   7   8
HETATM    8  C1  SGN C   3      34.902  73.783  19.970  1.00 35.40     0.287 C 
HETATM    9  C2  SGN C   3      33.510  73.145  20.124  1.00 33.71     0.182 C 
HETATM   10  C3  SGN C   3      32.530  73.616  19.043  1.00 35.79     0.178 C 
HETATM   11  C4  SGN C   3      32.570  75.143  18.857  1.00 36.62     0.186 C 
HETATM   12  C5  SGN C   3      34.011  75.617  18.722  1.00 39.32     0.181 C 
HETATM   13  O5  SGN C   3      34.781  75.190  19.860  1.00 37.58    -0.349 OA
BRANCH   9  14
HETATM   14  N2  SGN C   3      33.628  71.706  20.050  1.00 29.28    -0.289 N 
ATOM     15  H2  SGN C   3      34.078  71.253  19.255  1.00  0.00     0.175 HD
BRANCH  14  16
HETATM   16  S1  SGN C   3      33.008  70.821  21.300  1.00 27.84     0.205 S 
HETATM   17  O1S SGN C   3      33.078  69.446  20.843  1.00 27.65    -0.578 OA
HETATM   18  O2S SGN C   3      31.605  71.304  21.464  1.00 27.72    -0.578 OA
HETATM   19  O3S SGN C   3      33.829  71.055  22.530  1.00 28.50    -0.578 OA
ENDBRANCH  14  16
ENDBRANCH   9  14
BRANCH  10  20
HETATM   20  O3  SGN C   3      31.211  73.198  19.383  1.00 34.89    -0.391 OA
ATOM     21  H3  SGN C   3      31.172  72.994  20.310  1.00  0.00     0.210 HD
ENDBRANCH  10  20
BRANCH  11  22
HETATM   22  O4  SGN C   3      31.859  75.491  17.656  1.00 37.13    -0.348 OA
BRANCH  22  23
HETATM   23  C1  UAP C   4      30.659  76.159  17.849  1.00 39.64     0.294 C 
HETATM   24  C2  UAP C   4      29.753  75.962  16.647  1.00 38.70     0.228 C 
HETATM   25  C3  UAP C   4      28.474  76.777  16.817  1.00 38.51     0.156 C 
HETATM   26  C4  UAP C   4      27.867  76.727  18.295  1.00 38.14     0.077 C 
HETATM   27  C5  UAP C   4      28.705  76.140  19.254  1.00 38.51     0.228 C 
HETATM   28  O5  UAP C   4      30.034  75.603  18.998  1.00 37.46    -0.343 OA
BRANCH  24  29
HETATM   29  O2  UAP C   4      30.416  76.442  15.433  1.00 40.54    -0.244 OA
BRANCH  29  30
HETATM   30  S   UAP C   4      30.409  75.572  14.089  1.00 40.49     0.252 S 
HETATM   31  O1S UAP C   4      29.053  75.664  13.528  1.00 40.89    -0.572 OA
HETATM   32  O2S UAP C   4      30.744  74.194  14.474  1.00 37.88    -0.572 OA
HETATM   33  O3S UAP C   4      31.417  76.155  13.190  1.00 37.47    -0.572 OA
ENDBRANCH  29  30
ENDBRANCH  24  29
BRANCH  25  34
HETATM   34  O3  UAP C   4      27.502  76.307  15.895  1.00 38.58    -0.393 OA
ATOM     35  H3  UAP C   4      27.026  77.050  15.543  1.00  0.00     0.210 HD
ENDBRANCH  25  34
BRANCH  27  36
HETATM   36  C6  UAP C   4      28.297  75.969  20.676  1.00 37.96     0.203 C 
HETATM   37  O6A UAP C   4      28.495  74.862  21.216  1.00 40.05    -0.646 OA
HETATM   38  O6B UAP C   4      27.774  76.940  21.262  1.00 36.71    -0.646 OA
ENDBRANCH  27  36
ENDBRANCH  22  23
ENDBRANCH  11  22
BRANCH  12  39
HETATM   39  C6  SGN C   3      34.163  77.109  18.619  1.00 42.65     0.227 C 
BRANCH  39  40
HETATM   40  O6  SGN C   3      35.303  77.443  19.441  1.00 51.09    -0.254 OA
BRANCH  40  41
HETATM   41  S2  SGN C   3      36.656  77.788  18.669  1.00 54.80     0.251 S 
HETATM   42  O4S SGN C   3      37.155  79.068  19.203  1.00 54.99    -0.572 OA
HETATM   43  O5S SGN C   3      36.306  77.891  17.220  1.00 53.99    -0.572 OA
HETATM   44  O6S SGN C   3      37.583  76.696  18.931  1.00 55.43    -0.572 OA
ENDBRANCH  40  41
ENDBRANCH  39  40
ENDBRANCH  12  39
ENDBRANCH   7   8
ENDBRANCH   4   7
BRANCH   3  45
HETATM   45  O3  IDS C   2      38.227  74.424  20.251  1.00 39.65    -0.390 OA
ATOM     46  H3  IDS C   2      39.014  74.173  19.782  1.00  0.00     0.210 HD
ENDBRANCH   3  45
BRANCH   5  47
HETATM   47  C6  IDS C   2      36.039  70.528  18.097  1.00 36.10     0.206 C 
HETATM   48  O6A IDS C   2      36.284  70.799  16.901  1.00 32.44    -0.646 OA
HETATM   49  O6B IDS C   2      35.139  69.737  18.467  1.00 33.44    -0.646 OA
ENDBRANCH   5  47
BRANCH   2  50
HETATM   50  O2  IDS C   2      38.698  72.807  22.475  1.00 43.59    -0.244 OA
BRANCH  50  51
HETATM   51  S   IDS C   2      40.255  73.092  22.684  1.00 44.11     0.252 S 
HETATM   52  O1S IDS C   2      40.555  72.824  24.132  1.00 44.48    -0.572 OA
HETATM   53  O2S IDS C   2      40.489  74.505  22.319  1.00 44.29    -0.572 OA
HETATM   54  O3S IDS C   2      40.971  72.184  21.807  1.00 44.74    -0.572 OA
ENDBRANCH  50  51
ENDBRANCH   2  50
BRANCH   1  55
HETATM   55  O4  SGN C   1      38.218  69.873  21.634  1.00 44.73    -0.348 OA
BRANCH  55  56
HETATM   56  C4  SGN C   1      38.089  69.062  22.822  1.00 48.25     0.186 C 
HETATM   57  C3  SGN C   1      36.998  68.005  22.613  1.00 48.43     0.178 C 
HETATM   58  C2  SGN C   1      36.961  67.046  23.803  1.00 48.58     0.181 C 
HETATM   59  C1  SGN C   1      38.339  66.451  24.087  1.00 50.40     0.283 C 
HETATM   60  O5  SGN C   1      39.300  67.498  24.272  1.00 50.82    -0.349 OA
HETATM   61  C5  SGN C   1      39.425  68.361  23.119  1.00 51.58     0.181 C 
BRANCH  57  62
HETATM   62  O3  SGN C   1      35.734  68.634  22.479  1.00 46.09    -0.391 OA
ATOM     63  H3  SGN C   1      35.848  69.577  22.505  1.00  0.00     0.210 HD
ENDBRANCH  57  62
BRANCH  58  64
HETATM   64  N2  SGN C   1      36.011  65.980  23.564  1.00 48.56    -0.289 N 
ATOM     65  H2  SGN C   1      36.210  65.192  22.948  1.00  0.00     0.175 HD
BRANCH  64  66
HETATM   66  S1  SGN C   1      34.576  66.144  24.371  1.00 47.67     0.205 S 
HETATM   67  O1S SGN C   1      33.535  66.370  23.346  1.00 47.59    -0.578 OA
HETATM   68  O2S SGN C   1      34.755  67.302  25.253  1.00 48.55    -0.578 OA
HETATM   69  O3S SGN C   1      34.366  64.887  25.121  1.00 47.08    -0.578 OA
ENDBRANCH  64  66
ENDBRANCH  58  64
BRANCH  59  70
HETATM   70  O1  SGN C   1      38.743  65.663  23.019  1.00 51.36    -0.369 OA
ATOM     71  H1  SGN C   1      37.983  65.367  22.531  1.00  0.00     0.212 HD
ENDBRANCH  59  70
BRANCH  61  72
HETATM   72  C6  SGN C   1      40.536  69.334  23.426  1.00 55.48     0.227 C 
BRANCH  72  73
HETATM   73  O6  SGN C   1      41.741  68.920  22.747  1.00 61.59    -0.254 OA
BRANCH  73  74
HETATM   74  S2  SGN C   1      43.092  69.533  23.331  1.00 65.98     0.251 S 
HETATM   75  O4S SGN C   1      43.753  70.328  22.203  1.00 65.09    -0.572 OA
HETATM   76  O5S SGN C   1      43.908  68.408  23.750  1.00 65.58    -0.572 OA
HETATM   77  O6S SGN C   1      42.699  70.446  24.535  1.00 65.84    -0.572 OA
ENDBRANCH  73  74
ENDBRANCH  72  73
ENDBRANCH  61  72
ENDBRANCH  55  56
ENDBRANCH   1  55
TORSDOF 27
ENDMDL
MODEL 15
REMARK VINA RESULT:      -6.9      4.758     10.679
REMARK  27 active torsions:
REMARK  status: ('A' for Active; 'I' for Inactive)
REMARK    1  A    between atoms: C1_1  and  O1_2 
REMARK    2  A    between atoms: S1_5  and  N2_7 
REMARK    3  A    between atoms: C2_6  and  N2_7 
REMARK    4  A    between atoms: S2_10  and  O6_22 
REMARK    5  A    between atoms: C3_11  and  O3_12 
REMARK    6  A    between atoms: C4_15  and  O4_16 
REMARK    7  A    between atoms: O4_16  and  C1_24 
REMARK    8  A    between atoms: C5_18  and  C6_21 
REMARK    9  A    between atoms: C6_21  and  O6_22 
REMARK   10  A    between atoms: C2_26  and  O2_27 
REMARK   11  A    between atoms: O2_27  and  S_40 
REMARK   12  A    between atoms: C3_29  and  O3_30 
REMARK   13  A    between atoms: C4_33  and  O4_34 
REMARK   14  A    between atoms: O4_34  and  C1_41 
REMARK   15  A    between atoms: C5_35  and  C6_37 
REMARK   16  A    between atoms: S1_43  and  N2_45 
REMARK   17  A    between atoms: C2_44  and  N2_45 
REMARK   18  A    between atoms: S2_48  and  O6_60 
REMARK   19  A    between atoms: C3_49  and  O3_50 
REMARK   20  A    between atoms: C4_53  and  O4_54 
REMARK   21  A    between atoms: O4_54  and  C1_62 
REMARK   22  A    between atoms: C5_56  and  C6_59 
REMARK   23  A    between atoms: C6_59  and  O6_60 
REMARK   24  A    between atoms: C2_64  and  O2_65 
REMARK   25  A    between atoms: O2_65  and  S_77 
REMARK   26  A    between atoms: C3_67  and  O3_68 
REMARK   27  A    between atoms: C5_72  and  C6_74 
ROOT
HETATM    1  C1  IDS C   2      32.376  74.780  18.519  1.00 40.81     0.294 C 
HETATM    2  C2  IDS C   2      32.765  73.360  18.938  1.00 40.20     0.231 C 
HETATM    3  C3  IDS C   2      34.282  73.194  18.971  1.00 39.01     0.185 C 
HETATM    4  C4  IDS C   2      34.898  73.463  17.583  1.00 37.65     0.195 C 
HETATM    5  C5  IDS C   2      33.931  74.301  16.737  1.00 35.99     0.257 C 
HETATM    6  O5  IDS C   2      33.317  75.318  17.564  1.00 39.00    -0.340 OA
ENDROOT
BRANCH   4   7
HETATM    7  O4  IDS C   2      36.159  74.161  17.732  1.00 35.98    -0.348 OA
BRANCH   7   8
HETATM    8  C1  SGN C   3      36.457  74.627  19.021  1.00 35.40     0.287 C 
HETATM    9  C2  SGN C   3      36.788  76.130  18.977  1.00 33.71     0.182 C 
HETATM   10  C3  SGN C   3      38.162  76.405  18.354  1.00 35.79     0.178 C 
HETATM   11  C4  SGN C   3      39.249  75.479  18.926  1.00 36.62     0.186 C 
HETATM   12  C5  SGN C   3      38.769  74.033  18.902  1.00 39.32     0.181 C 
HETATM   13  O5  SGN C   3      37.525  73.913  19.616  1.00 37.58    -0.349 OA
BRANCH   9  14
HETATM   14  N2  SGN C   3      35.780  76.824  18.207  1.00 29.28    -0.289 N 
ATOM     15  H2  SGN C   3      35.620  76.601  17.224  1.00  0.00     0.175 HD
BRANCH  14  16
HETATM   16  S1  SGN C   3      34.899  77.991  18.974  1.00 27.84     0.205 S 
HETATM   17  O1S SGN C   3      34.460  77.365  20.207  1.00 27.65    -0.578 OA
HETATM   18  O2S SGN C   3      33.768  78.300  18.049  1.00 27.72    -0.578 OA
HETATM   19  O3S SGN C   3      35.764  79.188  19.219  1.00 28.50    -0.578 OA
ENDBRANCH  14  16
ENDBRANCH   9  14
BRANCH  10  20
HETATM   20  O3  SGN C   3      38.517  77.769  18.572  1.00 34.89    -0.391 OA
ATOM     21  H3  SGN C   3      39.309  77.971  18.087  1.00  0.00     0.210 HD
ENDBRANCH  10  20
BRANCH  11  22
HETATM   22  O4  SGN C   3      40.432  75.581  18.114  1.00 37.13    -0.348 OA
BRANCH  22  23
HETATM   23  C1  UAP C   4      41.504  76.231  18.707  1.00 39.64     0.294 C 
HETATM   24  C2  UAP C   4      41.862  77.476  17.916  1.00 38.70     0.228 C 
HETATM   25  C3  UAP C   4      43.101  78.137  18.513  1.00 38.51     0.156 C 
HETATM   26  C4  UAP C   4      43.111  78.171  20.111  1.00 38.14     0.077 C 
HETATM   27  C5  UAP C   4      42.108  77.403  20.720  1.00 38.51     0.228 C 
HETATM   28  O5  UAP C   4      41.108  76.610  20.019  1.00 37.46    -0.343 OA
BRANCH  24  29
HETATM   29  O2  UAP C   4      42.181  77.120  16.533  1.00 40.54    -0.244 OA
BRANCH  29  30
HETATM   30  S   UAP C   4      41.865  78.125  15.328  1.00 40.49     0.252 S 
HETATM   31  O1S UAP C   4      40.901  79.112  15.835  1.00 40.89    -0.572 OA
HETATM   32  O2S UAP C   4      41.294  77.317  14.240  1.00 37.88    -0.572 OA
HETATM   33  O3S UAP C   4      43.140  78.750  14.940  1.00 37.47    -0.572 OA
ENDBRANCH  29  30
ENDBRANCH  24  29
BRANCH  25  34
HETATM   34  O3  UAP C   4      43.203  79.462  18.016  1.00 38.58    -0.393 OA
ATOM     35  H3  UAP C   4      42.552  79.587  17.335  1.00  0.00     0.210 HD
ENDBRANCH  25  34
BRANCH  27  36
HETATM   36  C6  UAP C   4      41.932  77.342  22.198  1.00 37.96     0.203 C 
HETATM   37  O6A UAP C   4      42.612  78.114  22.904  1.00 40.05    -0.646 OA
HETATM   38  O6B UAP C   4      41.114  76.521  22.664  1.00 36.71    -0.646 OA
ENDBRANCH  27  36
ENDBRANCH  22  23
ENDBRANCH  11  22
BRANCH  12  39
HETATM   39  C6  SGN C   3      39.729  73.054  19.519  1.00 42.65     0.227 C 
BRANCH  39  40
HETATM   40  O6  SGN C   3      40.092  73.617  20.799  1.00 51.09    -0.254 OA
BRANCH  40  41
HETATM   41  S2  SGN C   3      39.940  72.655  22.063  1.00 54.80     0.251 S 
HETATM   42  O4S SGN C   3      38.534  72.720  22.501  1.00 54.99    -0.572 OA
HETATM   43  O5S SGN C   3      40.871  73.175  23.109  1.00 53.99    -0.572 OA
HETATM   44  O6S SGN C   3      40.306  71.315  21.622  1.00 55.43    -0.572 OA
ENDBRANCH  40  41
ENDBRANCH  39  40
ENDBRANCH  12  39
ENDBRANCH   7   8
ENDBRANCH   4   7
BRANCH   3  45
HETATM   45  O3  IDS C   2      34.606  71.876  19.395  1.00 39.65    -0.390 OA
ATOM     46  H3  IDS C   2      34.139  71.247  18.858  1.00  0.00     0.210 HD
ENDBRANCH   3  45
BRANCH   5  47
HETATM   47  C6  IDS C   2      34.560  74.993  15.536  1.00 36.10     0.206 C 
HETATM   48  O6A IDS C   2      35.074  74.270  14.654  1.00 32.44    -0.646 OA
HETATM   49  O6B IDS C   2      34.521  76.245  15.481  1.00 33.44    -0.646 OA
ENDBRANCH   5  47
BRANCH   2  50
HETATM   50  O2  IDS C   2      32.247  73.081  20.271  1.00 43.59    -0.244 OA
BRANCH  50  51
HETATM   51  S   IDS C   2      31.409  71.747  20.529  1.00 44.11     0.252 S 
HETATM   52  O1S IDS C   2      30.887  71.297  19.193  1.00 44.48    -0.572 OA
HETATM   53  O2S IDS C   2      30.319  72.094  21.465  1.00 44.29    -0.572 OA
HETATM   54  O3S IDS C   2      32.326  70.779  21.104  1.00 44.74    -0.572 OA
ENDBRANCH  50  51
ENDBRANCH   2  50
BRANCH   1  55
HETATM   55  O4  SGN C   1      31.117  74.762  17.938  1.00 44.73    -0.348 OA
BRANCH  55  56
HETATM   56  C4  SGN C   1      30.402  76.015  17.849  1.00 48.25     0.186 C 
HETATM   57  C3  SGN C   1      30.151  76.365  16.378  1.00 48.43     0.178 C 
HETATM   58  C2  SGN C   1      29.263  77.605  16.278  1.00 48.58     0.181 C 
HETATM   59  C1  SGN C   1      27.980  77.444  17.092  1.00 50.40     0.283 C 
HETATM   60  O5  SGN C   1      28.297  77.120  18.452  1.00 50.82    -0.349 OA
HETATM   61  C5  SGN C   1      29.054  75.894  18.579  1.00 51.58     0.181 C 
BRANCH  57  62
HETATM   62  O3  SGN C   1      31.384  76.619  15.723  1.00 46.09    -0.391 OA
ATOM     63  H3  SGN C   1      32.100  76.373  16.298  1.00  0.00     0.210 HD
ENDBRANCH  57  62
BRANCH  58  64
HETATM   64  N2  SGN C   1      28.930  77.879  14.895  1.00 48.56    -0.289 N 
ATOM     65  H2  SGN C   1      28.413  77.221  14.312  1.00  0.00     0.175 HD
BRANCH  64  66
HETATM   66  S1  SGN C   1      29.457  79.345  14.339  1.00 47.67     0.205 S 
HETATM   67  O1S SGN C   1      28.612  80.374  14.984  1.00 47.59    -0.578 OA
HETATM   68  O2S SGN C   1      29.273  79.300  12.885  1.00 48.55    -0.578 OA
HETATM   69  O3S SGN C   1      30.880  79.459  14.727  1.00 47.08    -0.578 OA
ENDBRANCH  64  66
ENDBRANCH  58  64
BRANCH  59  70
HETATM   70  O1  SGN C   1      27.209  76.421  16.561  1.00 51.36    -0.369 OA
ATOM     71  H1  SGN C   1      26.288  76.604  16.702  1.00  0.00     0.212 HD
ENDBRANCH  59  70
BRANCH  61  72
HETATM   72  C6  SGN C   1      29.213  75.638  20.057  1.00 55.48     0.227 C 
BRANCH  72  73
HETATM   73  O6  SGN C   1      28.308  76.487  20.795  1.00 61.59    -0.254 OA
BRANCH  73  74
HETATM   74  S2  SGN C   1      27.775  75.877  22.167  1.00 65.98     0.251 S 
HETATM   75  O4S SGN C   1      26.256  76.062  22.184  1.00 65.09    -0.572 OA
HETATM   76  O5S SGN C   1      28.422  76.623  23.231  1.00 65.58    -0.572 OA
HETATM   77  O6S SGN C   1      28.178  74.368  22.187  1.00 65.84    -0.572 OA
ENDBRANCH  73  74
ENDBRANCH  72  73
ENDBRANCH  61  72
ENDBRANCH  55  56
ENDBRANCH   1  55
TORSDOF 27
ENDMDL
MODEL 16
REMARK VINA RESULT:      -6.9      7.818     12.735
REMARK  27 active torsions:
REMARK  status: ('A' for Active; 'I' for Inactive)
REMARK    1  A    between atoms: C1_1  and  O1_2 
REMARK    2  A    between atoms: S1_5  and  N2_7 
REMARK    3  A    between atoms: C2_6  and  N2_7 
REMARK    4  A    between atoms: S2_10  and  O6_22 
REMARK    5  A    between atoms: C3_11  and  O3_12 
REMARK    6  A    between atoms: C4_15  and  O4_16 
REMARK    7  A    between atoms: O4_16  and  C1_24 
REMARK    8  A    between atoms: C5_18  and  C6_21 
REMARK    9  A    between atoms: C6_21  and  O6_22 
REMARK   10  A    between atoms: C2_26  and  O2_27 
REMARK   11  A    between atoms: O2_27  and  S_40 
REMARK   12  A    between atoms: C3_29  and  O3_30 
REMARK   13  A    between atoms: C4_33  and  O4_34 
REMARK   14  A    between atoms: O4_34  and  C1_41 
REMARK   15  A    between atoms: C5_35  and  C6_37 
REMARK   16  A    between atoms: S1_43  and  N2_45 
REMARK   17  A    between atoms: C2_44  and  N2_45 
REMARK   18  A    between atoms: S2_48  and  O6_60 
REMARK   19  A    between atoms: C3_49  and  O3_50 
REMARK   20  A    between atoms: C4_53  and  O4_54 
REMARK   21  A    between atoms: O4_54  and  C1_62 
REMARK   22  A    between atoms: C5_56  and  C6_59 
REMARK   23  A    between atoms: C6_59  and  O6_60 
REMARK   24  A    between atoms: C2_64  and  O2_65 
REMARK   25  A    between atoms: O2_65  and  S_77 
REMARK   26  A    between atoms: C3_67  and  O3_68 
REMARK   27  A    between atoms: C5_72  and  C6_74 
ROOT
HETATM    1  C1  IDS C   2      34.026  72.445  18.877  1.00 40.81     0.294 C 
HETATM    2  C2  IDS C   2      33.960  71.282  17.884  1.00 40.20     0.231 C 
HETATM    3  C3  IDS C   2      34.534  70.007  18.494  1.00 39.01     0.185 C 
HETATM    4  C4  IDS C   2      36.010  70.201  18.895  1.00 37.65     0.195 C 
HETATM    5  C5  IDS C   2      36.313  71.697  19.058  1.00 35.99     0.257 C 
HETATM    6  O5  IDS C   2      35.200  72.350  19.714  1.00 39.00    -0.340 OA
ENDROOT
BRANCH   4   7
HETATM    7  O4  IDS C   2      36.277  69.503  20.137  1.00 35.98    -0.348 OA
BRANCH   7   8
HETATM    8  C1  SGN C   3      35.162  68.962  20.793  1.00 35.40     0.287 C 
HETATM    9  C2  SGN C   3      35.439  68.850  22.303  1.00 33.71     0.182 C 
HETATM   10  C3  SGN C   3      36.419  67.718  22.632  1.00 35.79     0.178 C 
HETATM   11  C4  SGN C   3      36.058  66.414  21.901  1.00 36.62     0.186 C 
HETATM   12  C5  SGN C   3      35.813  66.693  20.423  1.00 39.32     0.181 C 
HETATM   13  O5  SGN C   3      34.795  67.698  20.272  1.00 37.58    -0.349 OA
BRANCH   9  14
HETATM   14  N2  SGN C   3      35.988  70.097  22.787  1.00 29.28    -0.289 N 
ATOM     15  H2  SGN C   3      36.827  70.501  22.371  1.00  0.00     0.175 HD
BRANCH  14  16
HETATM   16  S1  SGN C   3      35.210  70.842  24.039  1.00 27.84     0.205 S 
HETATM   17  O1S SGN C   3      33.853  71.032  23.563  1.00 27.65    -0.578 OA
HETATM   18  O2S SGN C   3      35.937  72.130  24.242  1.00 27.72    -0.578 OA
HETATM   19  O3S SGN C   3      35.270  69.968  25.253  1.00 28.50    -0.578 OA
ENDBRANCH  14  16
ENDBRANCH   9  14
BRANCH  10  20
HETATM   20  O3  SGN C   3      36.437  67.500  24.041  1.00 34.89    -0.391 OA
ATOM     21  H3  SGN C   3      37.200  66.982  24.272  1.00  0.00     0.210 HD
ENDBRANCH  10  20
BRANCH  11  22
HETATM   22  O4  SGN C   3      37.153  65.488  22.016  1.00 37.13    -0.348 OA
BRANCH  22  23
HETATM   23  C1  UAP C   4      36.844  64.273  22.608  1.00 39.64     0.294 C 
HETATM   24  C2  UAP C   4      37.503  64.173  23.971  1.00 38.70     0.228 C 
HETATM   25  C3  UAP C   4      37.243  62.798  24.580  1.00 38.51     0.156 C 
HETATM   26  C4  UAP C   4      35.748  62.271  24.371  1.00 38.14     0.077 C 
HETATM   27  C5  UAP C   4      34.975  63.033  23.483  1.00 38.51     0.228 C 
HETATM   28  O5  UAP C   4      35.432  64.217  22.768  1.00 37.46    -0.343 OA
BRANCH  24  29
HETATM   29  O2  UAP C   4      38.954  64.324  23.841  1.00 40.54    -0.244 OA
BRANCH  29  30
HETATM   30  S   UAP C   4      39.754  65.396  24.720  1.00 40.49     0.252 S 
HETATM   31  O1S UAP C   4      39.718  64.923  26.111  1.00 40.89    -0.572 OA
HETATM   32  O2S UAP C   4      39.053  66.679  24.565  1.00 37.88    -0.572 OA
HETATM   33  O3S UAP C   4      41.126  65.450  24.192  1.00 37.47    -0.572 OA
ENDBRANCH  29  30
ENDBRANCH  24  29
BRANCH  25  34
HETATM   34  O3  UAP C   4      37.534  62.845  25.968  1.00 38.58    -0.393 OA
ATOM     35  H3  UAP C   4      38.409  63.193  26.088  1.00  0.00     0.210 HD
ENDBRANCH  25  34
BRANCH  27  36
HETATM   36  C6  UAP C   4      33.548  62.721  23.192  1.00 37.96     0.203 C 
HETATM   37  O6A UAP C   4      33.082  61.647  23.621  1.00 40.05    -0.646 OA
HETATM   38  O6B UAP C   4      32.885  63.548  22.531  1.00 36.71    -0.646 OA
ENDBRANCH  27  36
ENDBRANCH  22  23
ENDBRANCH  11  22
BRANCH  12  39
HETATM   39  C6  SGN C   3      35.370  65.492  19.633  1.00 42.65     0.227 C 
BRANCH  39  40
HETATM   40  O6  SGN C   3      34.884  66.010  18.376  1.00 51.09    -0.254 OA
BRANCH  40  41
HETATM   41  S2  SGN C   3      35.840  65.816  17.113  1.00 54.80     0.251 S 
HETATM   42  O4S SGN C   3      34.978  65.639  15.930  1.00 54.99    -0.572 OA
HETATM   43  O5S SGN C   3      36.664  64.601  17.385  1.00 53.99    -0.572 OA
HETATM   44  O6S SGN C   3      36.656  67.019  17.012  1.00 55.43    -0.572 OA
ENDBRANCH  40  41
ENDBRANCH  39  40
ENDBRANCH  12  39
ENDBRANCH   7   8
ENDBRANCH   4   7
BRANCH   3  45
HETATM   45  O3  IDS C   2      34.425  68.943  17.558  1.00 39.65    -0.390 OA
ATOM     46  H3  IDS C   2      33.724  68.359  17.822  1.00  0.00     0.210 HD
ENDBRANCH   3  45
BRANCH   5  47
HETATM   47  C6  IDS C   2      37.574  72.015  19.850  1.00 36.10     0.206 C 
HETATM   48  O6A IDS C   2      38.649  72.101  19.217  1.00 32.44    -0.646 OA
HETATM   49  O6B IDS C   2      37.472  72.190  21.088  1.00 33.44    -0.646 OA
ENDBRANCH   5  47
BRANCH   2  50
HETATM   50  O2  IDS C   2      32.573  71.029  17.517  1.00 43.59    -0.244 OA
BRANCH  50  51
HETATM   51  S   IDS C   2      32.137  71.098  15.983  1.00 44.11     0.252 S 
HETATM   52  O1S IDS C   2      33.345  70.726  15.171  1.00 44.48    -0.572 OA
HETATM   53  O2S IDS C   2      31.695  72.484  15.720  1.00 44.29    -0.572 OA
HETATM   54  O3S IDS C   2      31.055  70.146  15.808  1.00 44.74    -0.572 OA
ENDBRANCH  50  51
ENDBRANCH   2  50
BRANCH   1  55
HETATM   55  O4  SGN C   1      34.075  73.645  18.182  1.00 44.73    -0.348 OA
BRANCH  55  56
HETATM   56  C4  SGN C   1      34.437  74.833  18.920  1.00 48.25     0.186 C 
HETATM   57  C3  SGN C   1      35.492  75.627  18.140  1.00 48.43     0.178 C 
HETATM   58  C2  SGN C   1      35.766  76.960  18.836  1.00 48.58     0.181 C 
HETATM   59  C1  SGN C   1      34.476  77.740  19.083  1.00 50.40     0.283 C 
HETATM   60  O5  SGN C   1      33.545  76.935  19.816  1.00 50.82    -0.349 OA
HETATM   61  C5  SGN C   1      33.192  75.712  19.129  1.00 51.58     0.181 C 
BRANCH  57  62
HETATM   62  O3  SGN C   1      36.697  74.883  18.060  1.00 46.09    -0.391 OA
ATOM     63  H3  SGN C   1      37.164  75.125  17.269  1.00  0.00     0.210 HD
ENDBRANCH  57  62
BRANCH  58  64
HETATM   64  N2  SGN C   1      36.678  77.764  18.049  1.00 48.56    -0.289 N 
ATOM     65  H2  SGN C   1      36.448  78.103  17.115  1.00  0.00     0.175 HD
BRANCH  64  66
HETATM   66  S1  SGN C   1      38.123  78.085  18.786  1.00 47.67     0.205 S 
HETATM   67  O1S SGN C   1      38.728  76.778  19.125  1.00 47.59    -0.578 OA
HETATM   68  O2S SGN C   1      37.787  78.873  19.977  1.00 48.55    -0.578 OA
HETATM   69  O3S SGN C   1      38.935  78.847  17.812  1.00 47.08    -0.578 OA
ENDBRANCH  64  66
ENDBRANCH  58  64
BRANCH  59  70
HETATM   70  O1  SGN C   1      33.899  78.094  17.872  1.00 51.36    -0.369 OA
ATOM     71  H1  SGN C   1      33.051  77.677  17.784  1.00  0.00     0.212 HD
ENDBRANCH  59  70
BRANCH  61  72
HETATM   72  C6  SGN C   1      32.137  75.035  19.968  1.00 55.48     0.227 C 
BRANCH  72  73
HETATM   73  O6  SGN C   1      31.352  76.034  20.655  1.00 61.59    -0.254 OA
BRANCH  73  74
HETATM   74  S2  SGN C   1      29.824  76.116  20.210  1.00 65.98     0.251 S 
HETATM   75  O4S SGN C   1      29.135  74.851  20.728  1.00 65.09    -0.572 OA
HETATM   76  O5S SGN C   1      29.817  76.180  18.760  1.00 65.58    -0.572 OA
HETATM   77  O6S SGN C   1      29.227  77.408  20.852  1.00 65.84    -0.572 OA
ENDBRANCH  73  74
ENDBRANCH  72  73
ENDBRANCH  61  72
ENDBRANCH  55  56
ENDBRANCH   1  55
TORSDOF 27
ENDMDL
MODEL 17
REMARK VINA RESULT:      -6.8      8.447     14.908
REMARK  27 active torsions:
REMARK  status: ('A' for Active; 'I' for Inactive)
REMARK    1  A    between atoms: C1_1  and  O1_2 
REMARK    2  A    between atoms: S1_5  and  N2_7 
REMARK    3  A    between atoms: C2_6  and  N2_7 
REMARK    4  A    between atoms: S2_10  and  O6_22 
REMARK    5  A    between atoms: C3_11  and  O3_12 
REMARK    6  A    between atoms: C4_15  and  O4_16 
REMARK    7  A    between atoms: O4_16  and  C1_24 
REMARK    8  A    between atoms: C5_18  and  C6_21 
REMARK    9  A    between atoms: C6_21  and  O6_22 
REMARK   10  A    between atoms: C2_26  and  O2_27 
REMARK   11  A    between atoms: O2_27  and  S_40 
REMARK   12  A    between atoms: C3_29  and  O3_30 
REMARK   13  A    between atoms: C4_33  and  O4_34 
REMARK   14  A    between atoms: O4_34  and  C1_41 
REMARK   15  A    between atoms: C5_35  and  C6_37 
REMARK   16  A    between atoms: S1_43  and  N2_45 
REMARK   17  A    between atoms: C2_44  and  N2_45 
REMARK   18  A    between atoms: S2_48  and  O6_60 
REMARK   19  A    between atoms: C3_49  and  O3_50 
REMARK   20  A    between atoms: C4_53  and  O4_54 
REMARK   21  A    between atoms: O4_54  and  C1_62 
REMARK   22  A    between atoms: C5_56  and  C6_59 
REMARK   23  A    between atoms: C6_59  and  O6_60 
REMARK   24  A    between atoms: C2_64  and  O2_65 
REMARK   25  A    between atoms: O2_65  and  S_77 
REMARK   26  A    between atoms: C3_67  and  O3_68 
REMARK   27  A    between atoms: C5_72  and  C6_74 
ROOT
HETATM    1  C1  IDS C   2      36.477  71.830  20.757  1.00 40.81     0.294 C 
HETATM    2  C2  IDS C   2      37.898  71.432  21.165  1.00 40.20     0.231 C 
HETATM    3  C3  IDS C   2      37.926  70.024  21.753  1.00 39.01     0.185 C 
HETATM    4  C4  IDS C   2      37.031  69.930  23.005  1.00 37.65     0.195 C 
HETATM    5  C5  IDS C   2      36.000  71.066  22.996  1.00 35.99     0.257 C 
HETATM    6  O5  IDS C   2      35.498  71.257  21.651  1.00 39.00    -0.340 OA
ENDROOT
BRANCH   4   7
HETATM    7  O4  IDS C   2      36.356  68.648  23.031  1.00 35.98    -0.348 OA
BRANCH   7   8
HETATM    8  C1  SGN C   3      36.474  67.865  21.874  1.00 35.40     0.287 C 
HETATM    9  C2  SGN C   3      35.084  67.396  21.408  1.00 33.71     0.182 C 
HETATM   10  C3  SGN C   3      34.503  66.305  22.315  1.00 35.79     0.178 C 
HETATM   11  C4  SGN C   3      35.533  65.204  22.622  1.00 36.62     0.186 C 
HETATM   12  C5  SGN C   3      36.850  65.828  23.066  1.00 39.32     0.181 C 
HETATM   13  O5  SGN C   3      37.323  66.748  22.066  1.00 37.58    -0.349 OA
BRANCH   9  14
HETATM   14  N2  SGN C   3      34.175  68.520  21.392  1.00 29.28    -0.289 N 
ATOM     15  H2  SGN C   3      33.957  69.035  22.245  1.00  0.00     0.175 HD
BRANCH  14  16
HETATM   16  S1  SGN C   3      33.501  68.940  19.943  1.00 27.84     0.205 S 
HETATM   17  O1S SGN C   3      34.632  69.284  19.101  1.00 27.65    -0.578 OA
HETATM   18  O2S SGN C   3      32.628  70.113  20.242  1.00 27.72    -0.578 OA
HETATM   19  O3S SGN C   3      32.720  67.783  19.403  1.00 28.50    -0.578 OA
ENDBRANCH  14  16
ENDBRANCH   9  14
BRANCH  10  20
HETATM   20  O3  SGN C   3      33.350  65.738  21.698  1.00 34.89    -0.391 OA
ATOM     21  H3  SGN C   3      32.572  66.010  22.170  1.00  0.00     0.210 HD
ENDBRANCH  10  20
BRANCH  11  22
HETATM   22  O4  SGN C   3      35.036  64.376  23.688  1.00 37.13    -0.348 OA
BRANCH  22  23
HETATM   23  C1  UAP C   4      34.968  63.021  23.405  1.00 39.64     0.294 C 
HETATM   24  C2  UAP C   4      34.336  62.276  24.567  1.00 38.70     0.228 C 
HETATM   25  C3  UAP C   4      34.351  60.774  24.296  1.00 38.51     0.156 C 
HETATM   26  C4  UAP C   4      33.972  60.384  22.792  1.00 38.14     0.077 C 
HETATM   27  C5  UAP C   4      33.905  61.468  21.904  1.00 38.51     0.228 C 
HETATM   28  O5  UAP C   4      34.153  62.860  22.251  1.00 37.46    -0.343 OA
BRANCH  24  29
HETATM   29  O2  UAP C   4      35.107  62.504  25.790  1.00 40.54    -0.244 OA
BRANCH  29  30
HETATM   30  S   UAP C   4      36.467  61.706  26.070  1.00 40.49     0.252 S 
HETATM   31  O1S UAP C   4      37.167  61.589  24.783  1.00 40.89    -0.572 OA
HETATM   32  O2S UAP C   4      36.084  60.389  26.601  1.00 37.88    -0.572 OA
HETATM   33  O3S UAP C   4      37.237  62.492  27.046  1.00 37.47    -0.572 OA
ENDBRANCH  29  30
ENDBRANCH  24  29
BRANCH  25  34
HETATM   34  O3  UAP C   4      33.449  60.135  25.186  1.00 38.58    -0.393 OA
ATOM     35  H3  UAP C   4      32.599  60.065  24.768  1.00  0.00     0.210 HD
ENDBRANCH  25  34
BRANCH  27  36
HETATM   36  C6  UAP C   4      33.529  61.308  20.472  1.00 37.96     0.203 C 
HETATM   37  O6A UAP C   4      34.220  60.551  19.763  1.00 40.05    -0.646 OA
HETATM   38  O6B UAP C   4      32.539  61.940  20.047  1.00 36.71    -0.646 OA
ENDBRANCH  27  36
ENDBRANCH  22  23
ENDBRANCH  11  22
BRANCH  12  39
HETATM   39  C6  SGN C   3      37.952  64.836  23.310  1.00 42.65     0.227 C 
BRANCH  39  40
HETATM   40  O6  SGN C   3      38.133  64.797  24.743  1.00 51.09    -0.254 OA
BRANCH  40  41
HETATM   41  S2  SGN C   3      39.628  64.590  25.262  1.00 54.80     0.251 S 
HETATM   42  O4S SGN C   3      40.023  63.209  24.931  1.00 54.99    -0.572 OA
HETATM   43  O5S SGN C   3      39.602  64.820  26.738  1.00 53.99    -0.572 OA
HETATM   44  O6S SGN C   3      40.455  65.569  24.571  1.00 55.43    -0.572 OA
ENDBRANCH  40  41
ENDBRANCH  39  40
ENDBRANCH  12  39
ENDBRANCH   7   8
ENDBRANCH   4   7
BRANCH   3  45
HETATM   45  O3  IDS C   2      39.262  69.677  22.088  1.00 39.65    -0.390 OA
ATOM     46  H3  IDS C   2      39.679  69.265  21.341  1.00  0.00     0.210 HD
ENDBRANCH   3  45
BRANCH   5  47
HETATM   47  C6  IDS C   2      34.805  70.858  23.916  1.00 36.10     0.206 C 
HETATM   48  O6A IDS C   2      33.668  70.841  23.394  1.00 32.44    -0.646 OA
HETATM   49  O6B IDS C   2      35.017  70.699  25.142  1.00 33.44    -0.646 OA
ENDBRANCH   5  47
BRANCH   2  50
HETATM   50  O2  IDS C   2      38.769  71.456  19.997  1.00 43.59    -0.244 OA
BRANCH  50  51
HETATM   51  S   IDS C   2      40.101  72.335  20.025  1.00 44.11     0.252 S 
HETATM   52  O1S IDS C   2      40.422  72.682  18.598  1.00 44.48    -0.572 OA
HETATM   53  O2S IDS C   2      41.155  71.506  20.647  1.00 44.29    -0.572 OA
HETATM   54  O3S IDS C   2      39.810  73.517  20.816  1.00 44.74    -0.572 OA
ENDBRANCH  50  51
ENDBRANCH   2  50
BRANCH   1  55
HETATM   55  O4  SGN C   1      36.355  73.212  20.795  1.00 44.73    -0.348 OA
BRANCH  55  56
HETATM   56  C4  SGN C   1      35.493  73.835  19.817  1.00 48.25     0.186 C 
HETATM   57  C3  SGN C   1      34.148  74.191  20.463  1.00 48.43     0.178 C 
HETATM   58  C2  SGN C   1      33.290  74.988  19.482  1.00 48.58     0.181 C 
HETATM   59  C1  SGN C   1      34.041  76.200  18.935  1.00 50.40     0.283 C 
HETATM   60  O5  SGN C   1      35.281  75.787  18.347  1.00 50.82    -0.349 OA
HETATM   61  C5  SGN C   1      36.155  75.117  19.285  1.00 51.58     0.181 C 
BRANCH  57  62
HETATM   62  O3  SGN C   1      33.460  73.006  20.833  1.00 46.09    -0.391 OA
ATOM     63  H3  SGN C   1      32.672  72.924  20.308  1.00  0.00     0.210 HD
ENDBRANCH  57  62
BRANCH  58  64
HETATM   64  N2  SGN C   1      32.064  75.423  20.121  1.00 48.56    -0.289 N 
ATOM     65  H2  SGN C   1      32.050  76.099  20.884  1.00  0.00     0.175 HD
BRANCH  64  66
HETATM   66  S1  SGN C   1      30.689  74.733  19.512  1.00 47.67     0.205 S 
HETATM   67  O1S SGN C   1      29.617  75.745  19.632  1.00 47.59    -0.578 OA
HETATM   68  O2S SGN C   1      30.442  73.553  20.346  1.00 48.55    -0.578 OA
HETATM   69  O3S SGN C   1      30.979  74.382  18.104  1.00 47.08    -0.578 OA
ENDBRANCH  64  66
ENDBRANCH  58  64
BRANCH  59  70
HETATM   70  O1  SGN C   1      34.312  77.091  19.963  1.00 51.36    -0.369 OA
ATOM     71  H1  SGN C   1      34.424  76.618  20.779  1.00  0.00     0.212 HD
ENDBRANCH  59  70
BRANCH  61  72
HETATM   72  C6  SGN C   1      37.445  74.844  18.552  1.00 55.48     0.227 C 
BRANCH  72  73
HETATM   73  O6  SGN C   1      38.425  75.842  18.912  1.00 61.59    -0.254 OA
BRANCH  73  74
HETATM   74  S2  SGN C   1      38.655  76.986  17.826  1.00 65.98     0.251 S 
HETATM   75  O4S SGN C   1      40.128  77.394  17.907  1.00 65.09    -0.572 OA
HETATM   76  O5S SGN C   1      37.771  78.080  18.184  1.00 65.58    -0.572 OA
HETATM   77  O6S SGN C   1      38.294  76.378  16.434  1.00 65.84    -0.572 OA
ENDBRANCH  73  74
ENDBRANCH  72  73
ENDBRANCH  61  72
ENDBRANCH  55  56
ENDBRANCH   1  55
TORSDOF 27
ENDMDL
MODEL 18
REMARK VINA RESULT:      -6.8      3.952      7.293
REMARK  27 active torsions:
REMARK  status: ('A' for Active; 'I' for Inactive)
REMARK    1  A    between atoms: C1_1  and  O1_2 
REMARK    2  A    between atoms: S1_5  and  N2_7 
REMARK    3  A    between atoms: C2_6  and  N2_7 
REMARK    4  A    between atoms: S2_10  and  O6_22 
REMARK    5  A    between atoms: C3_11  and  O3_12 
REMARK    6  A    between atoms: C4_15  and  O4_16 
REMARK    7  A    between atoms: O4_16  and  C1_24 
REMARK    8  A    between atoms: C5_18  and  C6_21 
REMARK    9  A    between atoms: C6_21  and  O6_22 
REMARK   10  A    between atoms: C2_26  and  O2_27 
REMARK   11  A    between atoms: O2_27  and  S_40 
REMARK   12  A    between atoms: C3_29  and  O3_30 
REMARK   13  A    between atoms: C4_33  and  O4_34 
REMARK   14  A    between atoms: O4_34  and  C1_41 
REMARK   15  A    between atoms: C5_35  and  C6_37 
REMARK   16  A    between atoms: S1_43  and  N2_45 
REMARK   17  A    between atoms: C2_44  and  N2_45 
REMARK   18  A    between atoms: S2_48  and  O6_60 
REMARK   19  A    between atoms: C3_49  and  O3_50 
REMARK   20  A    between atoms: C4_53  and  O4_54 
REMARK   21  A    between atoms: O4_54  and  C1_62 
REMARK   22  A    between atoms: C5_56  and  C6_59 
REMARK   23  A    between atoms: C6_59  and  O6_60 
REMARK   24  A    between atoms: C2_64  and  O2_65 
REMARK   25  A    between atoms: O2_65  and  S_77 
REMARK   26  A    between atoms: C3_67  and  O3_68 
REMARK   27  A    between atoms: C5_72  and  C6_74 
ROOT
HETATM    1  C1  IDS C   2      25.776  79.142  13.662  1.00 40.81     0.294 C 
HETATM    2  C2  IDS C   2      26.704  80.278  14.101  1.00 40.20     0.231 C 
HETATM    3  C3  IDS C   2      28.038  79.732  14.603  1.00 39.01     0.185 C 
HETATM    4  C4  IDS C   2      27.833  78.795  15.811  1.00 37.65     0.195 C 
HETATM    5  C5  IDS C   2      26.389  78.277  15.829  1.00 35.99     0.257 C 
HETATM    6  O5  IDS C   2      25.966  77.967  14.480  1.00 39.00    -0.340 OA
ENDROOT
BRANCH   4   7
HETATM    7  O4  IDS C   2      28.759  77.683  15.732  1.00 35.98    -0.348 OA
BRANCH   7   8
HETATM    8  C1  SGN C   3      30.037  77.906  16.264  1.00 35.40     0.287 C 
HETATM    9  C2  SGN C   3      31.110  77.332  15.321  1.00 33.71     0.182 C 
HETATM   10  C3  SGN C   3      31.156  75.800  15.355  1.00 35.79     0.178 C 
HETATM   11  C4  SGN C   3      31.144  75.256  16.793  1.00 36.62     0.186 C 
HETATM   12  C5  SGN C   3      30.032  75.921  17.595  1.00 39.32     0.181 C 
HETATM   13  O5  SGN C   3      30.183  77.351  17.559  1.00 37.58    -0.349 OA
BRANCH   9  14
HETATM   14  N2  SGN C   3      30.841  77.761  13.966  1.00 29.28    -0.289 N 
ATOM     15  H2  SGN C   3      30.020  77.429  13.461  1.00  0.00     0.175 HD
BRANCH  14  16
HETATM   16  S1  SGN C   3      31.912  78.805  13.266  1.00 27.84     0.205 S 
HETATM   17  O1S SGN C   3      31.661  78.684  11.842  1.00 27.65    -0.578 OA
HETATM   18  O2S SGN C   3      33.263  78.303  13.658  1.00 27.72    -0.578 OA
HETATM   19  O3S SGN C   3      31.660  80.191  13.774  1.00 28.50    -0.578 OA
ENDBRANCH  14  16
ENDBRANCH   9  14
BRANCH  10  20
HETATM   20  O3  SGN C   3      32.320  75.345  14.669  1.00 34.89    -0.391 OA
ATOM     21  H3  SGN C   3      32.066  74.748  13.975  1.00  0.00     0.210 HD
ENDBRANCH  10  20
BRANCH  11  22
HETATM   22  O4  SGN C   3      30.899  73.838  16.760  1.00 37.13    -0.348 OA
BRANCH  22  23
HETATM   23  C1  UAP C   4      31.951  73.066  16.292  1.00 39.64     0.294 C 
HETATM   24  C2  UAP C   4      32.214  71.911  17.242  1.00 38.70     0.228 C 
HETATM   25  C3  UAP C   4      33.433  71.119  16.778  1.00 38.51     0.156 C 
HETATM   26  C4  UAP C   4      33.489  70.886  15.197  1.00 38.14     0.077 C 
HETATM   27  C5  UAP C   4      32.550  71.623  14.462  1.00 38.51     0.228 C 
HETATM   28  O5  UAP C   4      31.576  72.547  15.023  1.00 37.46    -0.343 OA
BRANCH  24  29
HETATM   29  O2  UAP C   4      32.511  72.420  18.582  1.00 40.54    -0.244 OA
BRANCH  29  30
HETATM   30  S   UAP C   4      31.792  71.808  19.875  1.00 40.49     0.252 S 
HETATM   31  O1S UAP C   4      32.019  72.753  20.979  1.00 40.89    -0.572 OA
HETATM   32  O2S UAP C   4      32.424  70.507  20.136  1.00 37.88    -0.572 OA
HETATM   33  O3S UAP C   4      30.363  71.673  19.552  1.00 37.47    -0.572 OA
ENDBRANCH  29  30
ENDBRANCH  24  29
BRANCH  25  34
HETATM   34  O3  UAP C   4      33.445  69.863  17.438  1.00 38.58    -0.393 OA
ATOM     35  H3  UAP C   4      32.762  69.854  18.098  1.00  0.00     0.210 HD
ENDBRANCH  25  34
BRANCH  27  36
HETATM   36  C6  UAP C   4      32.424  71.508  12.982  1.00 37.96     0.203 C 
HETATM   37  O6A UAP C   4      32.634  72.525  12.292  1.00 40.05    -0.646 OA
HETATM   38  O6B UAP C   4      32.111  70.399  12.500  1.00 36.71    -0.646 OA
ENDBRANCH  27  36
ENDBRANCH  22  23
ENDBRANCH  11  22
BRANCH  12  39
HETATM   39  C6  SGN C   3      29.988  75.517  19.042  1.00 42.65     0.227 C 
BRANCH  39  40
HETATM   40  O6  SGN C   3      28.665  75.864  19.505  1.00 51.09    -0.254 OA
BRANCH  40  41
HETATM   41  S2  SGN C   3      28.491  76.047  21.081  1.00 54.80     0.251 S 
HETATM   42  O4S SGN C   3      27.332  76.933  21.297  1.00 54.99    -0.572 OA
HETATM   43  O5S SGN C   3      29.758  76.658  21.582  1.00 53.99    -0.572 OA
HETATM   44  O6S SGN C   3      28.267  74.719  21.638  1.00 55.43    -0.572 OA
ENDBRANCH  40  41
ENDBRANCH  39  40
ENDBRANCH  12  39
ENDBRANCH   7   8
ENDBRANCH   4   7
BRANCH   3  45
HETATM   45  O3  IDS C   2      28.884  80.814  14.970  1.00 39.65    -0.390 OA
ATOM     46  H3  IDS C   2      29.137  81.295  14.192  1.00  0.00     0.210 HD
ENDBRANCH   3  45
BRANCH   5  47
HETATM   47  C6  IDS C   2      26.161  77.039  16.686  1.00 36.10     0.206 C 
HETATM   48  O6A IDS C   2      26.580  77.065  17.864  1.00 32.44    -0.646 OA
HETATM   49  O6B IDS C   2      25.555  76.066  16.177  1.00 33.44    -0.646 OA
ENDBRANCH   5  47
BRANCH   2  50
HETATM   50  O2  IDS C   2      26.968  81.161  12.973  1.00 43.59    -0.244 OA
BRANCH  50  51
HETATM   51  S   IDS C   2      26.723  82.731  13.126  1.00 44.11     0.252 S 
HETATM   52  O1S IDS C   2      25.945  83.169  11.918  1.00 44.48    -0.572 OA
HETATM   53  O2S IDS C   2      28.053  83.372  13.195  1.00 44.29    -0.572 OA
HETATM   54  O3S IDS C   2      25.970  82.922  14.352  1.00 44.74    -0.572 OA
ENDBRANCH  50  51
ENDBRANCH   2  50
BRANCH   1  55
HETATM   55  O4  SGN C   1      24.455  79.552  13.778  1.00 44.73    -0.348 OA
BRANCH  55  56
HETATM   56  C4  SGN C   1      23.800  80.046  12.589  1.00 48.25     0.186 C 
HETATM   57  C3  SGN C   1      23.563  78.890  11.609  1.00 48.43     0.178 C 
HETATM   58  C2  SGN C   1      22.734  79.373  10.420  1.00 48.58     0.181 C 
HETATM   59  C1  SGN C   1      21.447  80.059  10.874  1.00 50.40     0.283 C 
HETATM   60  O5  SGN C   1      21.750  81.125  11.782  1.00 50.82    -0.349 OA
HETATM   61  C5  SGN C   1      22.449  80.677  12.966  1.00 51.58     0.181 C 
BRANCH  57  62
HETATM   62  O3  SGN C   1      24.805  78.389  11.142  1.00 46.09    -0.391 OA
ATOM     63  H3  SGN C   1      25.513  78.873  11.552  1.00  0.00     0.210 HD
ENDBRANCH  57  62
BRANCH  58  64
HETATM   64  N2  SGN C   1      22.411  78.264   9.545  1.00 48.56    -0.289 N 
ATOM     65  H2  SGN C   1      22.309  77.307   9.883  1.00  0.00     0.175 HD
BRANCH  64  66
HETATM   66  S1  SGN C   1      22.223  78.676   7.954  1.00 47.67     0.205 S 
HETATM   67  O1S SGN C   1      22.773  77.558   7.157  1.00 47.59    -0.578 OA
HETATM   68  O2S SGN C   1      22.985  79.917   7.779  1.00 48.55    -0.578 OA
HETATM   69  O3S SGN C   1      20.772  78.865   7.735  1.00 47.08    -0.578 OA
ENDBRANCH  64  66
ENDBRANCH  58  64
BRANCH  59  70
HETATM   70  O1  SGN C   1      20.628  79.145  11.520  1.00 51.36    -0.369 OA
ATOM     71  H1  SGN C   1      19.725  79.440  11.487  1.00  0.00     0.212 HD
ENDBRANCH  59  70
BRANCH  61  72
HETATM   72  C6  SGN C   1      22.599  81.882  13.861  1.00 55.48     0.227 C 
BRANCH  72  73
HETATM   73  O6  SGN C   1      22.418  83.086  13.084  1.00 61.59    -0.254 OA
BRANCH  73  74
HETATM   74  S2  SGN C   1      21.250  84.046  13.587  1.00 65.98     0.251 S 
HETATM   75  O4S SGN C   1      19.924  83.361  13.247  1.00 65.09    -0.572 OA
HETATM   76  O5S SGN C   1      21.409  85.300  12.874  1.00 65.58    -0.572 OA
HETATM   77  O6S SGN C   1      21.434  84.226  15.127  1.00 65.84    -0.572 OA
ENDBRANCH  73  74
ENDBRANCH  72  73
ENDBRANCH  61  72
ENDBRANCH  55  56
ENDBRANCH   1  55
TORSDOF 27
ENDMDL
MODEL 19
REMARK VINA RESULT:      -6.8      3.210      6.751
REMARK  27 active torsions:
REMARK  status: ('A' for Active; 'I' for Inactive)
REMARK    1  A    between atoms: C1_1  and  O1_2 
REMARK    2  A    between atoms: S1_5  and  N2_7 
REMARK    3  A    between atoms: C2_6  and  N2_7 
REMARK    4  A    between atoms: S2_10  and  O6_22 
REMARK    5  A    between atoms: C3_11  and  O3_12 
REMARK    6  A    between atoms: C4_15  and  O4_16 
REMARK    7  A    between atoms: O4_16  and  C1_24 
REMARK    8  A    between atoms: C5_18  and  C6_21 
REMARK    9  A    between atoms: C6_21  and  O6_22 
REMARK   10  A    between atoms: C2_26  and  O2_27 
REMARK   11  A    between atoms: O2_27  and  S_40 
REMARK   12  A    between atoms: C3_29  and  O3_30 
REMARK   13  A    between atoms: C4_33  and  O4_34 
REMARK   14  A    between atoms: O4_34  and  C1_41 
REMARK   15  A    between atoms: C5_35  and  C6_37 
REMARK   16  A    between atoms: S1_43  and  N2_45 
REMARK   17  A    between atoms: C2_44  and  N2_45 
REMARK   18  A    between atoms: S2_48  and  O6_60 
REMARK   19  A    between atoms: C3_49  and  O3_50 
REMARK   20  A    between atoms: C4_53  and  O4_54 
REMARK   21  A    between atoms: O4_54  and  C1_62 
REMARK   22  A    between atoms: C5_56  and  C6_59 
REMARK   23  A    between atoms: C6_59  and  O6_60 
REMARK   24  A    between atoms: C2_64  and  O2_65 
REMARK   25  A    between atoms: O2_65  and  S_77 
REMARK   26  A    between atoms: C3_67  and  O3_68 
REMARK   27  A    between atoms: C5_72  and  C6_74 
ROOT
HETATM    1  C1  IDS C   2      28.583  80.086  13.679  1.00 40.81     0.294 C 
HETATM    2  C2  IDS C   2      29.402  80.782  14.769  1.00 40.20     0.231 C 
HETATM    3  C3  IDS C   2      30.242  79.776  15.551  1.00 39.01     0.185 C 
HETATM    4  C4  IDS C   2      29.348  78.720  16.232  1.00 37.65     0.195 C 
HETATM    5  C5  IDS C   2      27.984  78.662  15.532  1.00 35.99     0.257 C 
HETATM    6  O5  IDS C   2      28.167  78.768  14.100  1.00 39.00    -0.340 OA
ENDROOT
BRANCH   4   7
HETATM    7  O4  IDS C   2      29.990  77.422  16.176  1.00 35.98    -0.348 OA
BRANCH   7   8
HETATM    8  C1  SGN C   3      31.320  77.373  16.620  1.00 35.40     0.287 C 
HETATM    9  C2  SGN C   3      32.137  76.412  15.738  1.00 33.71     0.182 C 
HETATM   10  C3  SGN C   3      31.793  74.942  16.006  1.00 35.79     0.178 C 
HETATM   11  C4  SGN C   3      31.752  74.626  17.511  1.00 36.62     0.186 C 
HETATM   12  C5  SGN C   3      30.911  75.665  18.241  1.00 39.32     0.181 C 
HETATM   13  O5  SGN C   3      31.418  76.986  17.979  1.00 37.58    -0.349 OA
BRANCH   9  14
HETATM   14  N2  SGN C   3      31.883  76.702  14.344  1.00 29.28    -0.289 N 
ATOM     15  H2  SGN C   3      30.938  76.675  13.963  1.00  0.00     0.175 HD
BRANCH  14  16
HETATM   16  S1  SGN C   3      33.180  77.078  13.392  1.00 27.84     0.205 S 
HETATM   17  O1S SGN C   3      32.623  77.880  12.318  1.00 27.65    -0.578 OA
HETATM   18  O2S SGN C   3      33.711  75.767  12.916  1.00 27.72    -0.578 OA
HETATM   19  O3S SGN C   3      34.189  77.831  14.201  1.00 28.50    -0.578 OA
ENDBRANCH  14  16
ENDBRANCH   9  14
BRANCH  10  20
HETATM   20  O3  SGN C   3      32.748  74.105  15.357  1.00 34.89    -0.391 OA
ATOM     21  H3  SGN C   3      32.294  73.453  14.835  1.00  0.00     0.210 HD
ENDBRANCH  10  20
BRANCH  11  22
HETATM   22  O4  SGN C   3      31.154  73.333  17.707  1.00 37.13    -0.348 OA
BRANCH  22  23
HETATM   23  C1  UAP C   4      31.979  72.377  18.278  1.00 39.64     0.294 C 
HETATM   24  C2  UAP C   4      32.575  71.490  17.200  1.00 38.70     0.228 C 
HETATM   25  C3  UAP C   4      33.406  70.379  17.835  1.00 38.51     0.156 C 
HETATM   26  C4  UAP C   4      34.308  70.866  19.062  1.00 38.14     0.077 C 
HETATM   27  C5  UAP C   4      34.037  72.168  19.508  1.00 38.51     0.228 C 
HETATM   28  O5  UAP C   4      33.029  73.059  18.952  1.00 37.46    -0.343 OA
BRANCH  24  29
HETATM   29  O2  UAP C   4      31.508  70.849  16.429  1.00 40.54    -0.244 OA
BRANCH  29  30
HETATM   30  S   UAP C   4      31.448  70.983  14.835  1.00 40.49     0.252 S 
HETATM   31  O1S UAP C   4      32.828  71.186  14.369  1.00 40.89    -0.572 OA
HETATM   32  O2S UAP C   4      30.598  72.145  14.538  1.00 37.88    -0.572 OA
HETATM   33  O3S UAP C   4      30.872  69.731  14.318  1.00 37.47    -0.572 OA
ENDBRANCH  29  30
ENDBRANCH  24  29
BRANCH  25  34
HETATM   34  O3  UAP C   4      34.238  69.799  16.843  1.00 38.58    -0.393 OA
ATOM     35  H3  UAP C   4      33.795  69.844  16.004  1.00  0.00     0.210 HD
ENDBRANCH  25  34
BRANCH  27  36
HETATM   36  C6  UAP C   4      34.802  72.809  20.614  1.00 37.96     0.203 C 
HETATM   37  O6A UAP C   4      34.549  72.460  21.784  1.00 40.05    -0.646 OA
HETATM   38  O6B UAP C   4      35.659  73.670  20.319  1.00 36.71    -0.646 OA
ENDBRANCH  27  36
ENDBRANCH  22  23
ENDBRANCH  11  22
BRANCH  12  39
HETATM   39  C6  SGN C   3      30.876  75.494  19.734  1.00 42.65     0.227 C 
BRANCH  39  40
HETATM   40  O6  SGN C   3      30.069  76.582  20.234  1.00 51.09    -0.254 OA
BRANCH  40  41
HETATM   41  S2  SGN C   3      28.584  76.213  20.686  1.00 54.80     0.251 S 
HETATM   42  O4S SGN C   3      27.684  76.555  19.569  1.00 54.99    -0.572 OA
HETATM   43  O5S SGN C   3      28.293  77.028  21.903  1.00 53.99    -0.572 OA
HETATM   44  O6S SGN C   3      28.572  74.784  20.970  1.00 55.43    -0.572 OA
ENDBRANCH  40  41
ENDBRANCH  39  40
ENDBRANCH  12  39
ENDBRANCH   7   8
ENDBRANCH   4   7
BRANCH   3  45
HETATM   45  O3  IDS C   2      31.012  80.461  16.530  1.00 39.65    -0.390 OA
ATOM     46  H3  IDS C   2      30.435  80.812  17.197  1.00  0.00     0.210 HD
ENDBRANCH   3  45
BRANCH   5  47
HETATM   47  C6  IDS C   2      27.174  77.403  15.807  1.00 36.10     0.206 C 
HETATM   48  O6A IDS C   2      26.259  77.476  16.656  1.00 32.44    -0.646 OA
HETATM   49  O6B IDS C   2      27.450  76.363  15.161  1.00 33.44    -0.646 OA
ENDBRANCH   5  47
BRANCH   2  50
HETATM   50  O2  IDS C   2      30.302  81.754  14.162  1.00 43.59    -0.244 OA
BRANCH  50  51
HETATM   51  S   IDS C   2      30.646  83.104  14.941  1.00 44.11     0.252 S 
HETATM   52  O1S IDS C   2      32.077  82.995  15.388  1.00 44.48    -0.572 OA
HETATM   53  O2S IDS C   2      29.712  83.196  16.083  1.00 44.29    -0.572 OA
HETATM   54  O3S IDS C   2      30.455  84.194  14.001  1.00 44.74    -0.572 OA
ENDBRANCH  50  51
ENDBRANCH   2  50
BRANCH   1  55
HETATM   55  O4  SGN C   1      27.452  80.838  13.398  1.00 44.73    -0.348 OA
BRANCH  55  56
HETATM   56  C4  SGN C   1      26.855  80.689  12.091  1.00 48.25     0.186 C 
HETATM   57  C3  SGN C   1      25.383  80.286  12.235  1.00 48.43     0.178 C 
HETATM   58  C2  SGN C   1      24.704  80.278  10.866  1.00 48.58     0.181 C 
HETATM   59  C1  SGN C   1      24.903  81.603  10.133  1.00 50.40     0.283 C 
HETATM   60  O5  SGN C   1      26.300  81.908  10.036  1.00 50.82    -0.349 OA
HETATM   61  C5  SGN C   1      26.944  82.020  11.326  1.00 51.58     0.181 C 
BRANCH  57  62
HETATM   62  O3  SGN C   1      25.289  78.994  12.813  1.00 46.09    -0.391 OA
ATOM     63  H3  SGN C   1      25.505  79.046  13.737  1.00  0.00     0.210 HD
ENDBRANCH  57  62
BRANCH  58  64
HETATM   64  N2  SGN C   1      23.288  80.007  11.005  1.00 48.56    -0.289 N 
ATOM     65  H2  SGN C   1      22.651  80.637  11.491  1.00  0.00     0.175 HD
BRANCH  64  66
HETATM   66  S1  SGN C   1      22.788  78.591  10.311  1.00 47.67     0.205 S 
HETATM   67  O1S SGN C   1      23.959  77.686  10.299  1.00 47.59    -0.578 OA
HETATM   68  O2S SGN C   1      22.346  78.953   8.960  1.00 48.55    -0.578 OA
HETATM   69  O3S SGN C   1      21.684  78.075  11.149  1.00 47.08    -0.578 OA
ENDBRANCH  64  66
ENDBRANCH  58  64
BRANCH  59  70
HETATM   70  O1  SGN C   1      24.273  82.626  10.826  1.00 51.36    -0.369 OA
ATOM     71  H1  SGN C   1      24.056  83.334  10.232  1.00  0.00     0.212 HD
ENDBRANCH  59  70
BRANCH  61  72
HETATM   72  C6  SGN C   1      28.367  82.445  11.061  1.00 55.48     0.227 C 
BRANCH  72  73
HETATM   73  O6  SGN C   1      28.757  82.029   9.735  1.00 61.59    -0.254 OA
BRANCH  73  74
HETATM   74  S2  SGN C   1      29.845  80.865   9.683  1.00 65.98     0.251 S 
HETATM   75  O4S SGN C   1      30.795  81.083  10.863  1.00 65.09    -0.572 OA
HETATM   76  O5S SGN C   1      30.528  80.994   8.408  1.00 65.58    -0.572 OA
HETATM   77  O6S SGN C   1      29.076  79.511   9.796  1.00 65.84    -0.572 OA
ENDBRANCH  73  74
ENDBRANCH  72  73
ENDBRANCH  61  72
ENDBRANCH  55  56
ENDBRANCH   1  55
TORSDOF 27
ENDMDL
MODEL 20
REMARK VINA RESULT:      -6.6      1.476      2.132
REMARK  27 active torsions:
REMARK  status: ('A' for Active; 'I' for Inactive)
REMARK    1  A    between atoms: C1_1  and  O1_2 
REMARK    2  A    between atoms: S1_5  and  N2_7 
REMARK    3  A    between atoms: C2_6  and  N2_7 
REMARK    4  A    between atoms: S2_10  and  O6_22 
REMARK    5  A    between atoms: C3_11  and  O3_12 
REMARK    6  A    between atoms: C4_15  and  O4_16 
REMARK    7  A    between atoms: O4_16  and  C1_24 
REMARK    8  A    between atoms: C5_18  and  C6_21 
REMARK    9  A    between atoms: C6_21  and  O6_22 
REMARK   10  A    between atoms: C2_26  and  O2_27 
REMARK   11  A    between atoms: O2_27  and  S_40 
REMARK   12  A    between atoms: C3_29  and  O3_30 
REMARK   13  A    between atoms: C4_33  and  O4_34 
REMARK   14  A    between atoms: O4_34  and  C1_41 
REMARK   15  A    between atoms: C5_35  and  C6_37 
REMARK   16  A    between atoms: S1_43  and  N2_45 
REMARK   17  A    between atoms: C2_44  and  N2_45 
REMARK   18  A    between atoms: S2_48  and  O6_60 
REMARK   19  A    between atoms: C3_49  and  O3_50 
REMARK   20  A    between atoms: C4_53  and  O4_54 
REMARK   21  A    between atoms: O4_54  and  C1_62 
REMARK   22  A    between atoms: C5_56  and  C6_59 
REMARK   23  A    between atoms: C6_59  and  O6_60 
REMARK   24  A    between atoms: C2_64  and  O2_65 
REMARK   25  A    between atoms: O2_65  and  S_77 
REMARK   26  A    between atoms: C3_67  and  O3_68 
REMARK   27  A    between atoms: C5_72  and  C6_74 
ROOT
HETATM    1  C1  IDS C   2      28.871  82.240  13.484  1.00 40.81     0.294 C 
HETATM    2  C2  IDS C   2      29.439  81.177  12.541  1.00 40.20     0.231 C 
HETATM    3  C3  IDS C   2      29.312  79.782  13.146  1.00 39.01     0.185 C 
HETATM    4  C4  IDS C   2      30.078  79.687  14.482  1.00 37.65     0.195 C 
HETATM    5  C5  IDS C   2      30.289  81.091  15.062  1.00 35.99     0.257 C 
HETATM    6  O5  IDS C   2      29.093  81.884  14.866  1.00 39.00    -0.340 OA
ENDROOT
BRANCH   4   7
HETATM    7  O4  IDS C   2      29.332  78.870  15.418  1.00 35.98    -0.348 OA
BRANCH   7   8
HETATM    8  C1  SGN C   3      29.190  77.517  15.079  1.00 35.40     0.287 C 
HETATM    9  C2  SGN C   3      28.570  76.738  16.252  1.00 33.71     0.182 C 
HETATM   10  C3  SGN C   3      29.558  76.541  17.408  1.00 35.79     0.178 C 
HETATM   11  C4  SGN C   3      30.932  76.057  16.912  1.00 36.62     0.186 C 
HETATM   12  C5  SGN C   3      31.405  76.924  15.753  1.00 39.32     0.181 C 
HETATM   13  O5  SGN C   3      30.422  76.927  14.703  1.00 37.58    -0.349 OA
BRANCH   9  14
HETATM   14  N2  SGN C   3      27.413  77.452  16.747  1.00 29.28    -0.289 N 
ATOM     15  H2  SGN C   3      27.499  78.149  17.486  1.00  0.00     0.175 HD
BRANCH  14  16
HETATM   16  S1  SGN C   3      25.948  77.096  16.072  1.00 27.84     0.205 S 
HETATM   17  O1S SGN C   3      24.984  77.782  16.912  1.00 27.65    -0.578 OA
HETATM   18  O2S SGN C   3      25.829  75.610  16.153  1.00 27.72    -0.578 OA
HETATM   19  O3S SGN C   3      25.920  77.585  14.657  1.00 28.50    -0.578 OA
ENDBRANCH  14  16
ENDBRANCH   9  14
BRANCH  10  20
HETATM   20  O3  SGN C   3      29.019  75.608  18.341  1.00 34.89    -0.391 OA
ATOM     21  H3  SGN C   3      29.329  75.818  19.214  1.00  0.00     0.210 HD
ENDBRANCH  10  20
BRANCH  11  22
HETATM   22  O4  SGN C   3      31.886  76.165  17.984  1.00 37.13    -0.348 OA
BRANCH  22  23
HETATM   23  C1  UAP C   4      32.542  74.990  18.316  1.00 39.64     0.294 C 
HETATM   24  C2  UAP C   4      33.897  75.302  18.925  1.00 38.70     0.228 C 
HETATM   25  C3  UAP C   4      34.657  74.008  19.200  1.00 38.51     0.156 C 
HETATM   26  C4  UAP C   4      33.752  72.842  19.814  1.00 38.14     0.077 C 
HETATM   27  C5  UAP C   4      32.373  73.101  19.798  1.00 38.51     0.228 C 
HETATM   28  O5  UAP C   4      31.746  74.307  19.276  1.00 37.46    -0.343 OA
BRANCH  24  29
HETATM   29  O2  UAP C   4      34.700  76.089  17.988  1.00 40.54    -0.244 OA
BRANCH  29  30
HETATM   30  S   UAP C   4      35.294  77.515  18.406  1.00 40.49     0.252 S 
HETATM   31  O1S UAP C   4      34.208  78.494  18.249  1.00 40.89    -0.572 OA
HETATM   32  O2S UAP C   4      36.411  77.794  17.492  1.00 37.88    -0.572 OA
HETATM   33  O3S UAP C   4      35.739  77.406  19.804  1.00 37.47    -0.572 OA
ENDBRANCH  29  30
ENDBRANCH  24  29
BRANCH  25  34
HETATM   34  O3  UAP C   4      35.731  74.283  20.086  1.00 38.58    -0.393 OA
ATOM     35  H3  UAP C   4      35.980  73.480  20.529  1.00  0.00     0.210 HD
ENDBRANCH  25  34
BRANCH  27  36
HETATM   36  C6  UAP C   4      31.374  72.151  20.362  1.00 37.96     0.203 C 
HETATM   37  O6A UAP C   4      30.280  72.608  20.748  1.00 40.05    -0.646 OA
HETATM   38  O6B UAP C   4      31.679  70.941  20.425  1.00 36.71    -0.646 OA
ENDBRANCH  27  36
ENDBRANCH  22  23
ENDBRANCH  11  22
BRANCH  12  39
HETATM   39  C6  SGN C   3      32.705  76.481  15.140  1.00 42.65     0.227 C 
BRANCH  39  40
HETATM   40  O6  SGN C   3      32.354  75.874  13.878  1.00 51.09    -0.254 OA
BRANCH  40  41
HETATM   41  S2  SGN C   3      32.825  74.364  13.663  1.00 54.80     0.251 S 
HETATM   42  O4S SGN C   3      34.224  74.399  13.200  1.00 54.99    -0.572 OA
HETATM   43  O5S SGN C   3      31.916  73.776  12.635  1.00 53.99    -0.572 OA
HETATM   44  O6S SGN C   3      32.699  73.695  14.951  1.00 55.43    -0.572 OA
ENDBRANCH  40  41
ENDBRANCH  39  40
ENDBRANCH  12  39
ENDBRANCH   7   8
ENDBRANCH   4   7
BRANCH   3  45
HETATM   45  O3  IDS C   2      29.818  78.820  12.231  1.00 39.65    -0.390 OA
ATOM     46  H3  IDS C   2      30.593  79.166  11.804  1.00  0.00     0.210 HD
ENDBRANCH   3  45
BRANCH   5  47
HETATM   47  C6  IDS C   2      30.636  81.129  16.544  1.00 36.10     0.206 C 
HETATM   48  O6A IDS C   2      31.219  80.134  17.028  1.00 32.44    -0.646 OA
HETATM   49  O6B IDS C   2      30.338  82.155  17.200  1.00 33.44    -0.646 OA
ENDBRANCH   5  47
BRANCH   2  50
HETATM   50  O2  IDS C   2      28.707  81.196  11.281  1.00 43.59    -0.244 OA
BRANCH  50  51
HETATM   51  S   IDS C   2      27.148  80.852  11.270  1.00 44.11     0.252 S 
HETATM   52  O1S IDS C   2      26.894  80.030  10.038  1.00 44.48    -0.572 OA
HETATM   53  O2S IDS C   2      26.420  82.138  11.242  1.00 44.29    -0.572 OA
HETATM   54  O3S IDS C   2      26.873  80.104  12.484  1.00 44.74    -0.572 OA
ENDBRANCH  50  51
ENDBRANCH   2  50
BRANCH   1  55
HETATM   55  O4  SGN C   1      29.489  83.457  13.236  1.00 44.73    -0.348 OA
BRANCH  55  56
HETATM   56  C4  SGN C   1      28.746  84.659  13.538  1.00 48.25     0.186 C 
HETATM   57  C3  SGN C   1      29.175  85.204  14.905  1.00 48.43     0.178 C 
HETATM   58  C2  SGN C   1      28.511  86.556  15.163  1.00 48.58     0.181 C 
HETATM   59  C1  SGN C   1      28.759  87.532  14.015  1.00 50.40     0.283 C 
HETATM   60  O5  SGN C   1      28.333  86.954  12.775  1.00 50.82    -0.349 OA
HETATM   61  C5  SGN C   1      29.021  85.722  12.460  1.00 51.58     0.181 C 
BRANCH  57  62
HETATM   62  O3  SGN C   1      28.799  84.295  15.928  1.00 46.09    -0.391 OA
ATOM     63  H3  SGN C   1      28.084  83.752  15.617  1.00  0.00     0.210 HD
ENDBRANCH  57  62
BRANCH  58  64
HETATM   64  N2  SGN C   1      28.994  87.129  16.402  1.00 48.56    -0.289 N 
ATOM     65  H2  SGN C   1      29.925  87.537  16.495  1.00  0.00     0.175 HD
BRANCH  64  66
HETATM   66  S1  SGN C   1      27.916  87.069  17.655  1.00 47.67     0.205 S 
HETATM   67  O1S SGN C   1      27.131  85.827  17.482  1.00 47.59    -0.578 OA
HETATM   68  O2S SGN C   1      27.093  88.275  17.519  1.00 48.55    -0.578 OA
HETATM   69  O3S SGN C   1      28.713  87.064  18.901  1.00 47.08    -0.578 OA
ENDBRANCH  64  66
ENDBRANCH  58  64
BRANCH  59  70
HETATM   70  O1  SGN C   1      30.113  87.822  13.926  1.00 51.36    -0.369 OA
ATOM     71  H1  SGN C   1      30.236  88.754  13.789  1.00  0.00     0.212 HD
ENDBRANCH  59  70
BRANCH  61  72
HETATM   72  C6  SGN C   1      28.545  85.299  11.092  1.00 55.48     0.227 C 
BRANCH  72  73
HETATM   73  O6  SGN C   1      29.674  84.877  10.297  1.00 61.59    -0.254 OA
BRANCH  73  74
HETATM   74  S2  SGN C   1      29.895  85.697   8.948  1.00 65.98     0.251 S 
HETATM   75  O4S SGN C   1      31.342  85.461   8.509  1.00 65.09    -0.572 OA
HETATM   76  O5S SGN C   1      29.648  87.091   9.266  1.00 65.58    -0.572 OA
HETATM   77  O6S SGN C   1      28.872  85.149   7.903  1.00 65.84    -0.572 OA
ENDBRANCH  73  74
ENDBRANCH  72  73
ENDBRANCH  61  72
ENDBRANCH  55  56
ENDBRANCH   1  55
TORSDOF 27
ENDMDL
MODEL 21
REMARK VINA RESULT:      -6.6      2.547      4.246
REMARK  27 active torsions:
REMARK  status: ('A' for Active; 'I' for Inactive)
REMARK    1  A    between atoms: C1_1  and  O1_2 
REMARK    2  A    between atoms: S1_5  and  N2_7 
REMARK    3  A    between atoms: C2_6  and  N2_7 
REMARK    4  A    between atoms: S2_10  and  O6_22 
REMARK    5  A    between atoms: C3_11  and  O3_12 
REMARK    6  A    between atoms: C4_15  and  O4_16 
REMARK    7  A    between atoms: O4_16  and  C1_24 
REMARK    8  A    between atoms: C5_18  and  C6_21 
REMARK    9  A    between atoms: C6_21  and  O6_22 
REMARK   10  A    between atoms: C2_26  and  O2_27 
REMARK   11  A    between atoms: O2_27  and  S_40 
REMARK   12  A    between atoms: C3_29  and  O3_30 
REMARK   13  A    between atoms: C4_33  and  O4_34 
REMARK   14  A    between atoms: O4_34  and  C1_41 
REMARK   15  A    between atoms: C5_35  and  C6_37 
REMARK   16  A    between atoms: S1_43  and  N2_45 
REMARK   17  A    between atoms: C2_44  and  N2_45 
REMARK   18  A    between atoms: S2_48  and  O6_60 
REMARK   19  A    between atoms: C3_49  and  O3_50 
REMARK   20  A    between atoms: C4_53  and  O4_54 
REMARK   21  A    between atoms: O4_54  and  C1_62 
REMARK   22  A    between atoms: C5_56  and  C6_59 
REMARK   23  A    between atoms: C6_59  and  O6_60 
REMARK   24  A    between atoms: C2_64  and  O2_65 
REMARK   25  A    between atoms: O2_65  and  S_77 
REMARK   26  A    between atoms: C3_67  and  O3_68 
REMARK   27  A    between atoms: C5_72  and  C6_74 
ROOT
HETATM    1  C1  IDS C   2      27.282  82.512  13.389  1.00 40.81     0.294 C 
HETATM    2  C2  IDS C   2      27.709  81.940  12.035  1.00 40.20     0.231 C 
HETATM    3  C3  IDS C   2      28.424  80.603  12.206  1.00 39.01     0.185 C 
HETATM    4  C4  IDS C   2      29.690  80.760  13.072  1.00 37.65     0.195 C 
HETATM    5  C5  IDS C   2      29.587  82.035  13.918  1.00 35.99     0.257 C 
HETATM    6  O5  IDS C   2      28.237  82.179  14.420  1.00 39.00    -0.340 OA
ENDROOT
BRANCH   4   7
HETATM    7  O4  IDS C   2      29.843  79.604  13.933  1.00 35.98    -0.348 OA
BRANCH   7   8
HETATM    8  C1  SGN C   3      29.206  78.429  13.507  1.00 35.40     0.287 C 
HETATM    9  C2  SGN C   3      28.565  77.710  14.707  1.00 33.71     0.182 C 
HETATM   10  C3  SGN C   3      29.609  77.042  15.611  1.00 35.79     0.178 C 
HETATM   11  C4  SGN C   3      30.642  76.240  14.800  1.00 36.62     0.186 C 
HETATM   12  C5  SGN C   3      31.178  77.087  13.652  1.00 39.32     0.181 C 
HETATM   13  O5  SGN C   3      30.091  77.554  12.833  1.00 37.58    -0.349 OA
BRANCH   9  14
HETATM   14  N2  SGN C   3      27.810  78.660  15.493  1.00 29.28    -0.289 N 
ATOM     15  H2  SGN C   3      28.273  79.289  16.149  1.00  0.00     0.175 HD
BRANCH  14  16
HETATM   16  S1  SGN C   3      26.171  78.689  15.292  1.00 27.84     0.205 S 
HETATM   17  O1S SGN C   3      25.651  77.934  16.416  1.00 27.65    -0.578 OA
HETATM   18  O2S SGN C   3      25.925  78.016  13.982  1.00 27.72    -0.578 OA
HETATM   19  O3S SGN C   3      25.695  80.108  15.290  1.00 28.50    -0.578 OA
ENDBRANCH  14  16
ENDBRANCH   9  14
BRANCH  10  20
HETATM   20  O3  SGN C   3      28.952  76.189  16.545  1.00 34.89    -0.391 OA
ATOM     21  H3  SGN C   3      29.431  76.191  17.366  1.00  0.00     0.210 HD
ENDBRANCH  10  20
BRANCH  11  22
HETATM   22  O4  SGN C   3      31.741  75.883  15.657  1.00 37.13    -0.348 OA
BRANCH  22  23
HETATM   23  C1  UAP C   4      31.942  74.522  15.828  1.00 39.64     0.294 C 
HETATM   24  C2  UAP C   4      31.605  74.120  17.253  1.00 38.70     0.228 C 
HETATM   25  C3  UAP C   4      31.919  72.642  17.467  1.00 38.51     0.156 C 
HETATM   26  C4  UAP C   4      31.489  71.704  16.245  1.00 38.14     0.077 C 
HETATM   27  C5  UAP C   4      31.101  72.392  15.087  1.00 38.51     0.228 C 
HETATM   28  O5  UAP C   4      31.073  73.840  14.934  1.00 37.46    -0.343 OA
BRANCH  24  29
HETATM   29  O2  UAP C   4      32.424  74.880  18.198  1.00 40.54    -0.244 OA
BRANCH  29  30
HETATM   30  S   UAP C   4      31.754  75.684  19.409  1.00 40.49     0.252 S 
HETATM   31  O1S UAP C   4      31.230  74.683  20.350  1.00 40.89    -0.572 OA
HETATM   32  O2S UAP C   4      30.677  76.502  18.832  1.00 37.88    -0.572 OA
HETATM   33  O3S UAP C   4      32.810  76.510  20.016  1.00 37.47    -0.572 OA
ENDBRANCH  29  30
ENDBRANCH  24  29
BRANCH  25  34
HETATM   34  O3  UAP C   4      31.270  72.199  18.649  1.00 38.58    -0.393 OA
ATOM     35  H3  UAP C   4      30.947  72.954  19.125  1.00  0.00     0.210 HD
ENDBRANCH  25  34
BRANCH  27  36
HETATM   36  C6  UAP C   4      30.629  71.692  13.860  1.00 37.96     0.203 C 
HETATM   37  O6A UAP C   4      30.440  70.461  13.921  1.00 40.05    -0.646 OA
HETATM   38  O6B UAP C   4      30.448  72.368  12.825  1.00 36.71    -0.646 OA
ENDBRANCH  27  36
ENDBRANCH  22  23
ENDBRANCH  11  22
BRANCH  12  39
HETATM   39  C6  SGN C   3      32.136  76.364  12.747  1.00 42.65     0.227 C 
BRANCH  39  40
HETATM   40  O6  SGN C   3      31.318  75.520  11.907  1.00 51.09    -0.254 OA
BRANCH  40  41
HETATM   41  S2  SGN C   3      31.765  75.394  10.381  1.00 54.80     0.251 S 
HETATM   42  O4S SGN C   3      31.643  73.975  10.000  1.00 54.99    -0.572 OA
HETATM   43  O5S SGN C   3      33.180  75.867  10.310  1.00 53.99    -0.572 OA
HETATM   44  O6S SGN C   3      30.866  76.240   9.606  1.00 55.43    -0.572 OA
ENDBRANCH  40  41
ENDBRANCH  39  40
ENDBRANCH  12  39
ENDBRANCH   7   8
ENDBRANCH   4   7
BRANCH   3  45
HETATM   45  O3  IDS C   2      28.774  80.086  10.929  1.00 39.65    -0.390 OA
ATOM     46  H3  IDS C   2      28.252  80.513  10.261  1.00  0.00     0.210 HD
ENDBRANCH   3  45
BRANCH   5  47
HETATM   47  C6  IDS C   2      30.537  82.096  15.107  1.00 36.10     0.206 C 
HETATM   48  O6A IDS C   2      30.035  82.064  16.252  1.00 32.44    -0.646 OA
HETATM   49  O6B IDS C   2      31.769  82.160  14.883  1.00 33.44    -0.646 OA
ENDBRANCH   5  47
BRANCH   2  50
HETATM   50  O2  IDS C   2      26.533  81.725  11.201  1.00 43.59    -0.244 OA
BRANCH  50  51
HETATM   51  S   IDS C   2      26.420  82.465   9.791  1.00 44.11     0.252 S 
HETATM   52  O1S IDS C   2      26.054  83.894  10.080  1.00 44.48    -0.572 OA
HETATM   53  O2S IDS C   2      25.372  81.767   9.018  1.00 44.29    -0.572 OA
HETATM   54  O3S IDS C   2      27.720  82.359   9.154  1.00 44.74    -0.572 OA
ENDBRANCH  50  51
ENDBRANCH   2  50
BRANCH   1  55
HETATM   55  O4  SGN C   1      27.193  83.894  13.300  1.00 44.73    -0.348 OA
BRANCH  55  56
HETATM   56  C4  SGN C   1      28.413  84.655  13.437  1.00 48.25     0.186 C 
HETATM   57  C3  SGN C   1      28.730  85.370  12.118  1.00 48.43     0.178 C 
HETATM   58  C2  SGN C   1      29.930  86.298  12.300  1.00 48.58     0.181 C 
HETATM   59  C1  SGN C   1      29.729  87.253  13.476  1.00 50.40     0.283 C 
HETATM   60  O5  SGN C   1      29.439  86.513  14.668  1.00 50.82    -0.349 OA
HETATM   61  C5  SGN C   1      28.248  85.700  14.554  1.00 51.58     0.181 C 
BRANCH  57  62
HETATM   62  O3  SGN C   1      29.025  84.416  11.110  1.00 46.09    -0.391 OA
ATOM     63  H3  SGN C   1      28.337  84.431  10.454  1.00  0.00     0.210 HD
ENDBRANCH  57  62
BRANCH  58  64
HETATM   64  N2  SGN C   1      30.169  87.059  11.091  1.00 48.56    -0.289 N 
ATOM     65  H2  SGN C   1      29.500  87.736  10.725  1.00  0.00     0.175 HD
BRANCH  64  66
HETATM   66  S1  SGN C   1      31.615  86.741  10.353  1.00 47.67     0.205 S 
HETATM   67  O1S SGN C   1      32.107  88.026   9.809  1.00 47.59    -0.578 OA
HETATM   68  O2S SGN C   1      31.309  85.767   9.300  1.00 48.55    -0.578 OA
HETATM   69  O3S SGN C   1      32.510  86.189  11.393  1.00 47.08    -0.578 OA
ENDBRANCH  64  66
ENDBRANCH  58  64
BRANCH  59  70
HETATM   70  O1  SGN C   1      28.666  88.105  13.214  1.00 51.36    -0.369 OA
ATOM     71  H1  SGN C   1      28.973  89.004  13.185  1.00  0.00     0.212 HD
ENDBRANCH  59  70
BRANCH  61  72
HETATM   72  C6  SGN C   1      28.021  85.075  15.907  1.00 55.48     0.227 C 
BRANCH  72  73
HETATM   73  O6  SGN C   1      28.667  85.872  16.922  1.00 61.59    -0.254 OA
BRANCH  73  74
HETATM   74  S2  SGN C   1      27.712  86.885  17.698  1.00 65.98     0.251 S 
HETATM   75  O4S SGN C   1      28.297  87.075  19.099  1.00 65.09    -0.572 OA
HETATM   76  O5S SGN C   1      26.400  86.265  17.740  1.00 65.58    -0.572 OA
HETATM   77  O6S SGN C   1      27.699  88.218  16.887  1.00 65.84    -0.572 OA
ENDBRANCH  73  74
ENDBRANCH  72  73
ENDBRANCH  61  72
ENDBRANCH  55  56
ENDBRANCH   1  55
TORSDOF 27
ENDMDL
MODEL 22
REMARK VINA RESULT:      -6.5      7.786     13.114
REMARK  27 active torsions:
REMARK  status: ('A' for Active; 'I' for Inactive)
REMARK    1  A    between atoms: C1_1  and  O1_2 
REMARK    2  A    between atoms: S1_5  and  N2_7 
REMARK    3  A    between atoms: C2_6  and  N2_7 
REMARK    4  A    between atoms: S2_10  and  O6_22 
REMARK    5  A    between atoms: C3_11  and  O3_12 
REMARK    6  A    between atoms: C4_15  and  O4_16 
REMARK    7  A    between atoms: O4_16  and  C1_24 
REMARK    8  A    between atoms: C5_18  and  C6_21 
REMARK    9  A    between atoms: C6_21  and  O6_22 
REMARK   10  A    between atoms: C2_26  and  O2_27 
REMARK   11  A    between atoms: O2_27  and  S_40 
REMARK   12  A    between atoms: C3_29  and  O3_30 
REMARK   13  A    between atoms: C4_33  and  O4_34 
REMARK   14  A    between atoms: O4_34  and  C1_41 
REMARK   15  A    between atoms: C5_35  and  C6_37 
REMARK   16  A    between atoms: S1_43  and  N2_45 
REMARK   17  A    between atoms: C2_44  and  N2_45 
REMARK   18  A    between atoms: S2_48  and  O6_60 
REMARK   19  A    between atoms: C3_49  and  O3_50 
REMARK   20  A    between atoms: C4_53  and  O4_54 
REMARK   21  A    between atoms: O4_54  and  C1_62 
REMARK   22  A    between atoms: C5_56  and  C6_59 
REMARK   23  A    between atoms: C6_59  and  O6_60 
REMARK   24  A    between atoms: C2_64  and  O2_65 
REMARK   25  A    between atoms: O2_65  and  S_77 
REMARK   26  A    between atoms: C3_67  and  O3_68 
REMARK   27  A    between atoms: C5_72  and  C6_74 
ROOT
HETATM    1  C1  IDS C   2      34.025  72.223  18.812  1.00 40.81     0.294 C 
HETATM    2  C2  IDS C   2      33.864  71.021  17.878  1.00 40.20     0.231 C 
HETATM    3  C3  IDS C   2      34.329  69.734  18.555  1.00 39.01     0.185 C 
HETATM    4  C4  IDS C   2      35.815  69.826  18.956  1.00 37.65     0.195 C 
HETATM    5  C5  IDS C   2      36.240  71.297  19.045  1.00 35.99     0.257 C 
HETATM    6  O5  IDS C   2      35.185  72.073  19.660  1.00 39.00    -0.340 OA
ENDROOT
BRANCH   4   7
HETATM    7  O4  IDS C   2      36.021  69.172  20.232  1.00 35.98    -0.348 OA
BRANCH   7   8
HETATM    8  C1  SGN C   3      34.862  68.842  20.950  1.00 35.40     0.287 C 
HETATM    9  C2  SGN C   3      35.184  68.728  22.451  1.00 33.71     0.182 C 
HETATM   10  C3  SGN C   3      35.979  67.460  22.782  1.00 35.79     0.178 C 
HETATM   11  C4  SGN C   3      35.376  66.213  22.112  1.00 36.62     0.186 C 
HETATM   12  C5  SGN C   3      35.115  66.486  20.636  1.00 39.32     0.181 C 
HETATM   13  O5  SGN C   3      34.270  67.641  20.489  1.00 37.58    -0.349 OA
BRANCH   9  14
HETATM   14  N2  SGN C   3      35.952  69.880  22.869  1.00 29.28    -0.289 N 
ATOM     15  H2  SGN C   3      36.859  70.090  22.452  1.00  0.00     0.175 HD
BRANCH  14  16
HETATM   16  S1  SGN C   3      35.308  70.844  24.046  1.00 27.84     0.205 S 
HETATM   17  O1S SGN C   3      35.353  70.032  25.247  1.00 27.65    -0.578 OA
HETATM   18  O2S SGN C   3      33.914  71.133  23.597  1.00 27.72    -0.578 OA
HETATM   19  O3S SGN C   3      36.126  72.092  24.170  1.00 28.50    -0.578 OA
ENDBRANCH  14  16
ENDBRANCH   9  14
BRANCH  10  20
HETATM   20  O3  SGN C   3      36.024  67.282  24.196  1.00 34.89    -0.391 OA
ATOM     21  H3  SGN C   3      35.154  67.404  24.558  1.00  0.00     0.210 HD
ENDBRANCH  10  20
BRANCH  11  22
HETATM   22  O4  SGN C   3      36.309  65.122  22.217  1.00 37.13    -0.348 OA
BRANCH  22  23
HETATM   23  C1  UAP C   4      36.345  64.489  23.450  1.00 39.64     0.294 C 
HETATM   24  C2  UAP C   4      35.925  63.038  23.304  1.00 38.70     0.228 C 
HETATM   25  C3  UAP C   4      35.871  62.368  24.674  1.00 38.51     0.156 C 
HETATM   26  C4  UAP C   4      37.090  62.758  25.633  1.00 38.14     0.077 C 
HETATM   27  C5  UAP C   4      37.890  63.811  25.167  1.00 38.51     0.228 C 
HETATM   28  O5  UAP C   4      37.685  64.540  23.923  1.00 37.46    -0.343 OA
BRANCH  24  29
HETATM   29  O2  UAP C   4      34.581  62.959  22.728  1.00 40.54    -0.244 OA
BRANCH  29  30
HETATM   30  S   UAP C   4      34.240  61.906  21.571  1.00 40.49     0.252 S 
HETATM   31  O1S UAP C   4      35.327  61.987  20.584  1.00 40.89    -0.572 OA
HETATM   32  O2S UAP C   4      32.951  62.314  20.993  1.00 37.88    -0.572 OA
HETATM   33  O3S UAP C   4      34.167  60.579  22.202  1.00 37.47    -0.572 OA
ENDBRANCH  29  30
ENDBRANCH  24  29
BRANCH  25  34
HETATM   34  O3  UAP C   4      35.844  60.961  24.499  1.00 38.58    -0.393 OA
ATOM     35  H3  UAP C   4      36.335  60.737  23.718  1.00  0.00     0.210 HD
ENDBRANCH  25  34
BRANCH  27  36
HETATM   36  C6  UAP C   4      39.094  64.288  25.903  1.00 37.96     0.203 C 
HETATM   37  O6A UAP C   4      39.402  63.710  26.963  1.00 40.05    -0.646 OA
HETATM   38  O6B UAP C   4      39.737  65.246  25.425  1.00 36.71    -0.646 OA
ENDBRANCH  27  36
ENDBRANCH  22  23
ENDBRANCH  11  22
BRANCH  12  39
HETATM   39  C6  SGN C   3      34.447  65.354  19.908  1.00 42.65     0.227 C 
BRANCH  39  40
HETATM   40  O6  SGN C   3      33.994  65.909  18.654  1.00 51.09    -0.254 OA
BRANCH  40  41
HETATM   41  S2  SGN C   3      34.480  65.161  17.331  1.00 54.80     0.251 S 
HETATM   42  O4S SGN C   3      33.275  64.734  16.597  1.00 54.99    -0.572 OA
HETATM   43  O5S SGN C   3      35.299  63.995  17.777  1.00 53.99    -0.572 OA
HETATM   44  O6S SGN C   3      35.266  66.121  16.567  1.00 55.43    -0.572 OA
ENDBRANCH  40  41
ENDBRANCH  39  40
ENDBRANCH  12  39
ENDBRANCH   7   8
ENDBRANCH   4   7
BRANCH   3  45
HETATM   45  O3  IDS C   2      34.133  68.637  17.673  1.00 39.65    -0.390 OA
ATOM     46  H3  IDS C   2      34.246  67.824  18.150  1.00  0.00     0.210 HD
ENDBRANCH   3  45
BRANCH   5  47
HETATM   47  C6  IDS C   2      37.522  71.550  19.827  1.00 36.10     0.206 C 
HETATM   48  O6A IDS C   2      38.609  71.361  19.237  1.00 32.44    -0.646 OA
HETATM   49  O6B IDS C   2      37.428  71.947  21.013  1.00 33.44    -0.646 OA
ENDBRANCH   5  47
BRANCH   2  50
HETATM   50  O2  IDS C   2      32.461  70.865  17.516  1.00 43.59    -0.244 OA
BRANCH  50  51
HETATM   51  S   IDS C   2      31.976  71.265  16.049  1.00 44.11     0.252 S 
HETATM   52  O1S IDS C   2      30.992  70.214  15.616  1.00 44.48    -0.572 OA
HETATM   53  O2S IDS C   2      33.177  71.293  15.188  1.00 44.29    -0.572 OA
HETATM   54  O3S IDS C   2      31.357  72.574  16.153  1.00 44.74    -0.572 OA
ENDBRANCH  50  51
ENDBRANCH   2  50
BRANCH   1  55
HETATM   55  O4  SGN C   1      34.174  73.378  18.058  1.00 44.73    -0.348 OA
BRANCH  55  56
HETATM   56  C4  SGN C   1      34.433  74.611  18.765  1.00 48.25     0.186 C 
HETATM   57  C3  SGN C   1      35.516  75.412  18.032  1.00 48.43     0.178 C 
HETATM   58  C2  SGN C   1      35.685  76.783  18.684  1.00 48.58     0.181 C 
HETATM   59  C1  SGN C   1      34.353  77.522  18.792  1.00 50.40     0.283 C 
HETATM   60  O5  SGN C   1      33.396  76.713  19.489  1.00 50.82    -0.349 OA
HETATM   61  C5  SGN C   1      33.144  75.448  18.836  1.00 51.58     0.181 C 
BRANCH  57  62
HETATM   62  O3  SGN C   1      36.750  74.714  18.082  1.00 46.09    -0.391 OA
ATOM     63  H3  SGN C   1      36.688  73.927  17.552  1.00  0.00     0.210 HD
ENDBRANCH  57  62
BRANCH  58  64
HETATM   64  N2  SGN C   1      36.627  77.588  17.932  1.00 48.56    -0.289 N 
ATOM     65  H2  SGN C   1      36.453  77.888  16.973  1.00  0.00     0.175 HD
BRANCH  64  66
HETATM   66  S1  SGN C   1      38.008  77.979  18.756  1.00 47.67     0.205 S 
HETATM   67  O1S SGN C   1      37.597  78.830  19.894  1.00 47.59    -0.578 OA
HETATM   68  O2S SGN C   1      38.846  78.699  17.792  1.00 48.55    -0.578 OA
HETATM   69  O3S SGN C   1      38.615  76.704  19.195  1.00 47.08    -0.578 OA
ENDBRANCH  64  66
ENDBRANCH  58  64
BRANCH  59  70
HETATM   70  O1  SGN C   1      33.861  77.798  17.525  1.00 51.36    -0.369 OA
ATOM     71  H1  SGN C   1      32.938  78.015  17.577  1.00  0.00     0.212 HD
ENDBRANCH  59  70
BRANCH  61  72
HETATM   72  C6  SGN C   1      32.051  74.767  19.621  1.00 55.48     0.227 C 
BRANCH  72  73
HETATM   73  O6  SGN C   1      31.394  75.733  20.471  1.00 61.59    -0.254 OA
BRANCH  73  74
HETATM   74  S2  SGN C   1      29.850  75.970  20.157  1.00 65.98     0.251 S 
HETATM   75  O4S SGN C   1      29.084  74.773  20.727  1.00 65.09    -0.572 OA
HETATM   76  O5S SGN C   1      29.729  76.050  18.713  1.00 65.58    -0.572 OA
HETATM   77  O6S SGN C   1      29.440  77.307  20.850  1.00 65.84    -0.572 OA
ENDBRANCH  73  74
ENDBRANCH  72  73
ENDBRANCH  61  72
ENDBRANCH  55  56
ENDBRANCH   1  55
TORSDOF 27
ENDMDL
MODEL 23
REMARK VINA RESULT:      -6.5      5.069     10.652
REMARK  27 active torsions:
REMARK  status: ('A' for Active; 'I' for Inactive)
REMARK    1  A    between atoms: C1_1  and  O1_2 
REMARK    2  A    between atoms: S1_5  and  N2_7 
REMARK    3  A    between atoms: C2_6  and  N2_7 
REMARK    4  A    between atoms: S2_10  and  O6_22 
REMARK    5  A    between atoms: C3_11  and  O3_12 
REMARK    6  A    between atoms: C4_15  and  O4_16 
REMARK    7  A    between atoms: O4_16  and  C1_24 
REMARK    8  A    between atoms: C5_18  and  C6_21 
REMARK    9  A    between atoms: C6_21  and  O6_22 
REMARK   10  A    between atoms: C2_26  and  O2_27 
REMARK   11  A    between atoms: O2_27  and  S_40 
REMARK   12  A    between atoms: C3_29  and  O3_30 
REMARK   13  A    between atoms: C4_33  and  O4_34 
REMARK   14  A    between atoms: O4_34  and  C1_41 
REMARK   15  A    between atoms: C5_35  and  C6_37 
REMARK   16  A    between atoms: S1_43  and  N2_45 
REMARK   17  A    between atoms: C2_44  and  N2_45 
REMARK   18  A    between atoms: S2_48  and  O6_60 
REMARK   19  A    between atoms: C3_49  and  O3_50 
REMARK   20  A    between atoms: C4_53  and  O4_54 
REMARK   21  A    between atoms: O4_54  and  C1_62 
REMARK   22  A    between atoms: C5_56  and  C6_59 
REMARK   23  A    between atoms: C6_59  and  O6_60 
REMARK   24  A    between atoms: C2_64  and  O2_65 
REMARK   25  A    between atoms: O2_65  and  S_77 
REMARK   26  A    between atoms: C3_67  and  O3_68 
REMARK   27  A    between atoms: C5_72  and  C6_74 
ROOT
HETATM    1  C1  IDS C   2      31.983  75.143  18.939  1.00 40.81     0.294 C 
HETATM    2  C2  IDS C   2      32.599  73.761  19.171  1.00 40.20     0.231 C 
HETATM    3  C3  IDS C   2      34.123  73.825  19.116  1.00 39.01     0.185 C 
HETATM    4  C4  IDS C   2      34.606  74.334  17.743  1.00 37.65     0.195 C 
HETATM    5  C5  IDS C   2      33.477  75.103  17.045  1.00 35.99     0.257 C 
HETATM    6  O5  IDS C   2      32.774  75.919  18.012  1.00 39.00    -0.340 OA
ENDROOT
BRANCH   4   7
HETATM    7  O4  IDS C   2      35.759  75.195  17.916  1.00 35.98    -0.348 OA
BRANCH   7   8
HETATM    8  C1  SGN C   3      36.964  74.729  17.371  1.00 35.40     0.287 C 
HETATM    9  C2  SGN C   3      38.069  74.741  18.442  1.00 33.71     0.182 C 
HETATM   10  C3  SGN C   3      38.547  76.161  18.770  1.00 35.79     0.178 C 
HETATM   11  C4  SGN C   3      38.813  76.986  17.499  1.00 36.62     0.186 C 
HETATM   12  C5  SGN C   3      37.633  76.869  16.543  1.00 39.32     0.181 C 
HETATM   13  O5  SGN C   3      37.372  75.486  16.245  1.00 37.58    -0.349 OA
BRANCH   9  14
HETATM   14  N2  SGN C   3      37.574  74.126  19.654  1.00 29.28    -0.289 N 
ATOM     15  H2  SGN C   3      36.802  74.537  20.177  1.00  0.00     0.175 HD
BRANCH  14  16
HETATM   16  S1  SGN C   3      38.306  72.734  20.160  1.00 27.84     0.205 S 
HETATM   17  O1S SGN C   3      38.146  72.742  21.602  1.00 27.65    -0.578 OA
HETATM   18  O2S SGN C   3      39.731  72.864  19.737  1.00 27.72    -0.578 OA
HETATM   19  O3S SGN C   3      37.636  71.558  19.519  1.00 28.50    -0.578 OA
ENDBRANCH  14  16
ENDBRANCH   9  14
BRANCH  10  20
HETATM   20  O3  SGN C   3      39.728  76.093  19.566  1.00 34.89    -0.391 OA
ATOM     21  H3  SGN C   3      40.079  75.211  19.536  1.00  0.00     0.210 HD
ENDBRANCH  10  20
BRANCH  11  22
HETATM   22  O4  SGN C   3      38.975  78.369  17.859  1.00 37.13    -0.348 OA
BRANCH  22  23
HETATM   23  C1  UAP C   4      40.219  78.913  17.581  1.00 39.64     0.294 C 
HETATM   24  C2  UAP C   4      40.980  79.162  18.870  1.00 38.70     0.228 C 
HETATM   25  C3  UAP C   4      42.309  79.850  18.569  1.00 38.51     0.156 C 
HETATM   26  C4  UAP C   4      43.068  79.261  17.292  1.00 38.14     0.077 C 
HETATM   27  C5  UAP C   4      42.310  78.370  16.518  1.00 38.51     0.228 C 
HETATM   28  O5  UAP C   4      40.937  77.972  16.792  1.00 37.46    -0.343 OA
BRANCH  24  29
HETATM   29  O2  UAP C   4      40.215  80.057  19.741  1.00 40.54    -0.244 OA
BRANCH  29  30
HETATM   30  S   UAP C   4      39.954  79.689  21.277  1.00 40.49     0.252 S 
HETATM   31  O1S UAP C   4      40.345  78.282  21.453  1.00 40.89    -0.572 OA
HETATM   32  O2S UAP C   4      38.518  79.887  21.523  1.00 37.88    -0.572 OA
HETATM   33  O3S UAP C   4      40.784  80.595  22.086  1.00 37.47    -0.572 OA
ENDBRANCH  29  30
ENDBRANCH  24  29
BRANCH  25  34
HETATM   34  O3  UAP C   4      43.152  79.743  19.706  1.00 38.58    -0.393 OA
ATOM     35  H3  UAP C   4      43.541  80.591  19.883  1.00  0.00     0.210 HD
ENDBRANCH  25  34
BRANCH  27  36
HETATM   36  C6  UAP C   4      42.860  77.688  15.313  1.00 37.96     0.203 C 
HETATM   37  O6A UAP C   4      42.056  77.183  14.505  1.00 40.05    -0.646 OA
HETATM   38  O6B UAP C   4      44.100  77.652  15.169  1.00 36.71    -0.646 OA
ENDBRANCH  27  36
ENDBRANCH  22  23
ENDBRANCH  11  22
BRANCH  12  39
HETATM   39  C6  SGN C   3      37.830  77.574  15.230  1.00 42.65     0.227 C 
BRANCH  39  40
HETATM   40  O6  SGN C   3      38.671  76.703  14.442  1.00 51.09    -0.254 OA
BRANCH  40  41
HETATM   41  S2  SGN C   3      38.201  76.433  12.941  1.00 54.80     0.251 S 
HETATM   42  O4S SGN C   3      38.159  74.973  12.746  1.00 54.99    -0.572 OA
HETATM   43  O5S SGN C   3      39.213  77.082  12.054  1.00 53.99    -0.572 OA
HETATM   44  O6S SGN C   3      36.882  77.035  12.796  1.00 55.43    -0.572 OA
ENDBRANCH  40  41
ENDBRANCH  39  40
ENDBRANCH  12  39
ENDBRANCH   7   8
ENDBRANCH   4   7
BRANCH   3  45
HETATM   45  O3  IDS C   2      34.661  72.534  19.368  1.00 39.65    -0.390 OA
ATOM     46  H3  IDS C   2      35.217  72.567  20.136  1.00  0.00     0.210 HD
ENDBRANCH   3  45
BRANCH   5  47
HETATM   47  C6  IDS C   2      33.923  76.009  15.906  1.00 36.10     0.206 C 
HETATM   48  O6A IDS C   2      34.296  75.464  14.844  1.00 32.44    -0.646 OA
HETATM   49  O6B IDS C   2      33.882  77.250  16.081  1.00 33.44    -0.646 OA
ENDBRANCH   5  47
BRANCH   2  50
HETATM   50  O2  IDS C   2      32.211  73.264  20.484  1.00 43.59    -0.244 OA
BRANCH  50  51
HETATM   51  S   IDS C   2      31.712  71.756  20.640  1.00 44.11     0.252 S 
HETATM   52  O1S IDS C   2      30.345  71.812  21.260  1.00 44.48    -0.572 OA
HETATM   53  O2S IDS C   2      32.689  71.064  21.507  1.00 44.29    -0.572 OA
HETATM   54  O3S IDS C   2      31.677  71.183  19.306  1.00 44.74    -0.572 OA
ENDBRANCH  50  51
ENDBRANCH   2  50
BRANCH   1  55
HETATM   55  O4  SGN C   1      30.705  74.998  18.417  1.00 44.73    -0.348 OA
BRANCH  55  56
HETATM   56  C4  SGN C   1      29.939  76.199  18.179  1.00 48.25     0.186 C 
HETATM   57  C3  SGN C   1      29.548  76.281  16.699  1.00 48.43     0.178 C 
HETATM   58  C2  SGN C   1      28.608  77.463  16.468  1.00 48.58     0.181 C 
HETATM   59  C1  SGN C   1      27.408  77.419  17.412  1.00 50.40     0.283 C 
HETATM   60  O5  SGN C   1      27.852  77.346  18.772  1.00 50.82    -0.349 OA
HETATM   61  C5  SGN C   1      28.664  76.179  19.040  1.00 51.58     0.181 C 
BRANCH  57  62
HETATM   62  O3  SGN C   1      30.709  76.443  15.900  1.00 46.09    -0.391 OA
ATOM     63  H3  SGN C   1      30.458  76.472  14.984  1.00  0.00     0.210 HD
ENDBRANCH  57  62
BRANCH  58  64
HETATM   64  N2  SGN C   1      28.146  77.483  15.095  1.00 48.56    -0.289 N 
ATOM     65  H2  SGN C   1      27.374  76.903  14.765  1.00  0.00     0.175 HD
BRANCH  64  66
HETATM   66  S1  SGN C   1      28.973  78.520  14.107  1.00 47.67     0.205 S 
HETATM   67  O1S SGN C   1      29.863  79.318  14.977  1.00 47.59    -0.578 OA
HETATM   68  O2S SGN C   1      27.946  79.338  13.454  1.00 48.55    -0.578 OA
HETATM   69  O3S SGN C   1      29.725  77.682  13.147  1.00 47.08    -0.578 OA
ENDBRANCH  64  66
ENDBRANCH  58  64
BRANCH  59  70
HETATM   70  O1  SGN C   1      26.633  76.301  17.139  1.00 51.36    -0.369 OA
ATOM     71  H1  SGN C   1      26.812  75.992  16.259  1.00  0.00     0.212 HD
ENDBRANCH  59  70
BRANCH  61  72
HETATM   72  C6  SGN C   1      28.961  76.190  20.519  1.00 55.48     0.227 C 
BRANCH  72  73
HETATM   73  O6  SGN C   1      28.248  75.111  21.162  1.00 61.59    -0.254 OA
BRANCH  73  74
HETATM   74  S2  SGN C   1      27.818  75.389  22.671  1.00 65.98     0.251 S 
HETATM   75  O4S SGN C   1      27.952  74.067  23.430  1.00 65.09    -0.572 OA
HETATM   76  O5S SGN C   1      26.443  75.852  22.630  1.00 65.58    -0.572 OA
HETATM   77  O6S SGN C   1      28.782  76.482  23.230  1.00 65.84    -0.572 OA
ENDBRANCH  73  74
ENDBRANCH  72  73
ENDBRANCH  61  72
ENDBRANCH  55  56
ENDBRANCH   1  55
TORSDOF 27
ENDMDL
MODEL 24
REMARK VINA RESULT:      -6.4      3.226      7.858
REMARK  27 active torsions:
REMARK  status: ('A' for Active; 'I' for Inactive)
REMARK    1  A    between atoms: C1_1  and  O1_2 
REMARK    2  A    between atoms: S1_5  and  N2_7 
REMARK    3  A    between atoms: C2_6  and  N2_7 
REMARK    4  A    between atoms: S2_10  and  O6_22 
REMARK    5  A    between atoms: C3_11  and  O3_12 
REMARK    6  A    between atoms: C4_15  and  O4_16 
REMARK    7  A    between atoms: O4_16  and  C1_24 
REMARK    8  A    between atoms: C5_18  and  C6_21 
REMARK    9  A    between atoms: C6_21  and  O6_22 
REMARK   10  A    between atoms: C2_26  and  O2_27 
REMARK   11  A    between atoms: O2_27  and  S_40 
REMARK   12  A    between atoms: C3_29  and  O3_30 
REMARK   13  A    between atoms: C4_33  and  O4_34 
REMARK   14  A    between atoms: O4_34  and  C1_41 
REMARK   15  A    between atoms: C5_35  and  C6_37 
REMARK   16  A    between atoms: S1_43  and  N2_45 
REMARK   17  A    between atoms: C2_44  and  N2_45 
REMARK   18  A    between atoms: S2_48  and  O6_60 
REMARK   19  A    between atoms: C3_49  and  O3_50 
REMARK   20  A    between atoms: C4_53  and  O4_54 
REMARK   21  A    between atoms: O4_54  and  C1_62 
REMARK   22  A    between atoms: C5_56  and  C6_59 
REMARK   23  A    between atoms: C6_59  and  O6_60 
REMARK   24  A    between atoms: C2_64  and  O2_65 
REMARK   25  A    between atoms: O2_65  and  S_77 
REMARK   26  A    between atoms: C3_67  and  O3_68 
REMARK   27  A    between atoms: C5_72  and  C6_74 
ROOT
HETATM    1  C1  IDS C   2      28.387  86.928  13.831  1.00 40.81     0.294 C 
HETATM    2  C2  IDS C   2      28.278  86.393  15.261  1.00 40.20     0.231 C 
HETATM    3  C3  IDS C   2      28.794  84.960  15.351  1.00 39.01     0.185 C 
HETATM    4  C4  IDS C   2      27.985  84.022  14.433  1.00 37.65     0.195 C 
HETATM    5  C5  IDS C   2      27.281  84.840  13.343  1.00 35.99     0.257 C 
HETATM    6  O5  IDS C   2      28.169  85.878  12.863  1.00 39.00    -0.340 OA
ENDROOT
BRANCH   4   7
HETATM    7  O4  IDS C   2      28.868  83.045  13.828  1.00 35.98    -0.348 OA
BRANCH   7   8
HETATM    8  C1  SGN C   3      29.847  82.496  14.667  1.00 35.40     0.287 C 
HETATM    9  C2  SGN C   3      31.114  82.167  13.858  1.00 33.71     0.182 C 
HETATM   10  C3  SGN C   3      30.929  80.940  12.957  1.00 35.79     0.178 C 
HETATM   11  C4  SGN C   3      30.271  79.770  13.708  1.00 36.62     0.186 C 
HETATM   12  C5  SGN C   3      29.037  80.257  14.458  1.00 39.32     0.181 C 
HETATM   13  O5  SGN C   3      29.388  81.337  15.341  1.00 37.58    -0.349 OA
BRANCH   9  14
HETATM   14  N2  SGN C   3      31.468  83.301  13.033  1.00 29.28    -0.289 N 
ATOM     15  H2  SGN C   3      30.820  83.669  12.337  1.00  0.00     0.175 HD
BRANCH  14  16
HETATM   16  S1  SGN C   3      32.958  83.977  13.257  1.00 27.84     0.205 S 
HETATM   17  O1S SGN C   3      33.855  83.152  12.471  1.00 27.65    -0.578 OA
HETATM   18  O2S SGN C   3      33.217  83.876  14.724  1.00 27.72    -0.578 OA
HETATM   19  O3S SGN C   3      32.935  85.399  12.789  1.00 28.50    -0.578 OA
ENDBRANCH  14  16
ENDBRANCH   9  14
BRANCH  10  20
HETATM   20  O3  SGN C   3      32.193  80.538  12.436  1.00 34.89    -0.391 OA
ATOM     21  H3  SGN C   3      32.270  80.827  11.534  1.00  0.00     0.210 HD
ENDBRANCH  10  20
BRANCH  11  22
HETATM   22  O4  SGN C   3      29.864  78.768  12.759  1.00 37.13    -0.348 OA
BRANCH  22  23
HETATM   23  C1  UAP C   4      30.555  77.569  12.829  1.00 39.64     0.294 C 
HETATM   24  C2  UAP C   4      31.302  77.321  11.531  1.00 38.70     0.228 C 
HETATM   25  C3  UAP C   4      31.984  75.956  11.572  1.00 38.51     0.156 C 
HETATM   26  C4  UAP C   4      32.677  75.620  12.974  1.00 38.14     0.077 C 
HETATM   27  C5  UAP C   4      32.368  76.514  14.010  1.00 38.51     0.228 C 
HETATM   28  O5  UAP C   4      31.492  77.671  13.893  1.00 37.46    -0.343 OA
BRANCH  24  29
HETATM   29  O2  UAP C   4      30.366  77.306  10.406  1.00 40.54    -0.244 OA
BRANCH  29  30
HETATM   30  S   UAP C   4      30.555  78.295   9.162  1.00 40.49     0.252 S 
HETATM   31  O1S UAP C   4      29.259  78.368   8.472  1.00 40.89    -0.572 OA
HETATM   32  O2S UAP C   4      31.594  77.705   8.305  1.00 37.88    -0.572 OA
HETATM   33  O3S UAP C   4      30.964  79.600   9.705  1.00 37.47    -0.572 OA
ENDBRANCH  29  30
ENDBRANCH  24  29
BRANCH  25  34
HETATM   34  O3  UAP C   4      32.957  75.895  10.542  1.00 38.58    -0.393 OA
ATOM     35  H3  UAP C   4      32.529  75.665   9.726  1.00  0.00     0.210 HD
ENDBRANCH  25  34
BRANCH  27  36
HETATM   36  C6  UAP C   4      32.950  76.387  15.375  1.00 37.96     0.203 C 
HETATM   37  O6A UAP C   4      32.961  77.398  16.106  1.00 40.05    -0.646 OA
HETATM   38  O6B UAP C   4      33.402  75.277  15.725  1.00 36.71    -0.646 OA
ENDBRANCH  27  36
ENDBRANCH  22  23
ENDBRANCH  11  22
BRANCH  12  39
HETATM   39  C6  SGN C   3      28.367  79.203  15.295  1.00 42.65     0.227 C 
BRANCH  39  40
HETATM   40  O6  SGN C   3      29.363  78.767  16.245  1.00 51.09    -0.254 OA
BRANCH  40  41
HETATM   41  S2  SGN C   3      29.107  77.353  16.940  1.00 54.80     0.251 S 
HETATM   42  O4S SGN C   3      29.146  76.327  15.882  1.00 54.99    -0.572 OA
HETATM   43  O5S SGN C   3      27.763  77.433  17.586  1.00 53.99    -0.572 OA
HETATM   44  O6S SGN C   3      30.172  77.163  17.916  1.00 55.43    -0.572 OA
ENDBRANCH  40  41
ENDBRANCH  39  40
ENDBRANCH  12  39
ENDBRANCH   7   8
ENDBRANCH   4   7
BRANCH   3  45
HETATM   45  O3  IDS C   2      28.709  84.509  16.696  1.00 39.65    -0.390 OA
ATOM     46  H3  IDS C   2      28.085  85.044  17.171  1.00  0.00     0.210 HD
ENDBRANCH   3  45
BRANCH   5  47
HETATM   47  C6  IDS C   2      26.809  84.036  12.139  1.00 36.10     0.206 C 
HETATM   48  O6A IDS C   2      27.267  84.349  11.017  1.00 32.44    -0.646 OA
HETATM   49  O6B IDS C   2      26.002  83.095  12.330  1.00 33.44    -0.646 OA
ENDBRANCH   5  47
BRANCH   2  50
HETATM   50  O2  IDS C   2      29.074  87.222  16.157  1.00 43.59    -0.244 OA
BRANCH  50  51
HETATM   51  S   IDS C   2      28.439  87.737  17.528  1.00 44.11     0.252 S 
HETATM   52  O1S IDS C   2      28.672  86.659  18.547  1.00 44.48    -0.572 OA
HETATM   53  O2S IDS C   2      27.000  87.967  17.279  1.00 44.29    -0.572 OA
HETATM   54  O3S IDS C   2      29.128  88.967  17.875  1.00 44.74    -0.572 OA
ENDBRANCH  50  51
ENDBRANCH   2  50
BRANCH   1  55
HETATM   55  O4  SGN C   1      27.434  87.917  13.633  1.00 44.73    -0.348 OA
BRANCH  55  56
HETATM   56  C4  SGN C   1      27.593  88.781  12.487  1.00 48.25     0.186 C 
HETATM   57  C3  SGN C   1      26.405  88.604  11.534  1.00 48.43     0.178 C 
HETATM   58  C2  SGN C   1      26.486  89.624  10.399  1.00 48.58     0.181 C 
HETATM   59  C1  SGN C   1      26.630  91.048  10.933  1.00 50.40     0.283 C 
HETATM   60  O5  SGN C   1      27.759  91.134  11.810  1.00 50.82    -0.349 OA
HETATM   61  C5  SGN C   1      27.659  90.247  12.949  1.00 51.58     0.181 C 
BRANCH  57  62
HETATM   62  O3  SGN C   1      26.413  87.294  10.989  1.00 46.09    -0.391 OA
ATOM     63  H3  SGN C   1      27.311  86.995  10.905  1.00  0.00     0.210 HD
ENDBRANCH  57  62
BRANCH  58  64
HETATM   64  N2  SGN C   1      25.311  89.537   9.556  1.00 48.56    -0.289 N 
ATOM     65  H2  SGN C   1      24.370  89.725   9.901  1.00  0.00     0.175 HD
BRANCH  64  66
HETATM   66  S1  SGN C   1      25.620  89.108   7.988  1.00 47.67     0.205 S 
HETATM   67  O1S SGN C   1      26.296  87.793   8.032  1.00 47.59    -0.578 OA
HETATM   68  O2S SGN C   1      26.487  90.166   7.458  1.00 48.55    -0.578 OA
HETATM   69  O3S SGN C   1      24.312  89.048   7.300  1.00 47.08    -0.578 OA
ENDBRANCH  64  66
ENDBRANCH  58  64
BRANCH  59  70
HETATM   70  O1  SGN C   1      25.491  91.405  11.639  1.00 51.36    -0.369 OA
ATOM     71  H1  SGN C   1      25.674  92.157  12.189  1.00  0.00     0.212 HD
ENDBRANCH  59  70
BRANCH  61  72
HETATM   72  C6  SGN C   1      28.856  90.529  13.822  1.00 55.48     0.227 C 
BRANCH  72  73
HETATM   73  O6  SGN C   1      30.038  90.637  13.000  1.00 61.59    -0.254 OA
BRANCH  73  74
HETATM   74  S2  SGN C   1      30.952  91.909  13.293  1.00 65.98     0.251 S 
HETATM   75  O4S SGN C   1      30.037  93.137  13.268  1.00 65.09    -0.572 OA
HETATM   76  O5S SGN C   1      31.947  91.956  12.238  1.00 65.58    -0.572 OA
HETATM   77  O6S SGN C   1      31.602  91.696  14.696  1.00 65.84    -0.572 OA
ENDBRANCH  73  74
ENDBRANCH  72  73
ENDBRANCH  61  72
ENDBRANCH  55  56
ENDBRANCH   1  55
TORSDOF 27
ENDMDL
MODEL 25
REMARK VINA RESULT:      -6.4      5.322     13.062
REMARK  27 active torsions:
REMARK  status: ('A' for Active; 'I' for Inactive)
REMARK    1  A    between atoms: C1_1  and  O1_2 
REMARK    2  A    between atoms: S1_5  and  N2_7 
REMARK    3  A    between atoms: C2_6  and  N2_7 
REMARK    4  A    between atoms: S2_10  and  O6_22 
REMARK    5  A    between atoms: C3_11  and  O3_12 
REMARK    6  A    between atoms: C4_15  and  O4_16 
REMARK    7  A    between atoms: O4_16  and  C1_24 
REMARK    8  A    between atoms: C5_18  and  C6_21 
REMARK    9  A    between atoms: C6_21  and  O6_22 
REMARK   10  A    between atoms: C2_26  and  O2_27 
REMARK   11  A    between atoms: O2_27  and  S_40 
REMARK   12  A    between atoms: C3_29  and  O3_30 
REMARK   13  A    between atoms: C4_33  and  O4_34 
REMARK   14  A    between atoms: O4_34  and  C1_41 
REMARK   15  A    between atoms: C5_35  and  C6_37 
REMARK   16  A    between atoms: S1_43  and  N2_45 
REMARK   17  A    between atoms: C2_44  and  N2_45 
REMARK   18  A    between atoms: S2_48  and  O6_60 
REMARK   19  A    between atoms: C3_49  and  O3_50 
REMARK   20  A    between atoms: C4_53  and  O4_54 
REMARK   21  A    between atoms: O4_54  and  C1_62 
REMARK   22  A    between atoms: C5_56  and  C6_59 
REMARK   23  A    between atoms: C6_59  and  O6_60 
REMARK   24  A    between atoms: C2_64  and  O2_65 
REMARK   25  A    between atoms: O2_65  and  S_77 
REMARK   26  A    between atoms: C3_67  and  O3_68 
REMARK   27  A    between atoms: C5_72  and  C6_74 
ROOT
HETATM    1  C1  IDS C   2      26.939  85.390  13.161  1.00 40.81     0.294 C 
HETATM    2  C2  IDS C   2      26.796  86.743  12.459  1.00 40.20     0.231 C 
HETATM    3  C3  IDS C   2      25.448  86.854  11.753  1.00 39.01     0.185 C 
HETATM    4  C4  IDS C   2      25.287  85.750  10.689  1.00 37.65     0.195 C 
HETATM    5  C5  IDS C   2      26.243  84.590  10.994  1.00 35.99     0.257 C 
HETATM    6  O5  IDS C   2      26.272  84.345  12.420  1.00 39.00    -0.340 OA
ENDROOT
BRANCH   4   7
HETATM    7  O4  IDS C   2      23.918  85.275  10.676  1.00 35.98    -0.348 OA
BRANCH   7   8
HETATM    8  C1  SGN C   3      23.095  85.739  11.713  1.00 35.40     0.287 C 
HETATM    9  C2  SGN C   3      22.319  84.566  12.338  1.00 33.71     0.182 C 
HETATM   10  C3  SGN C   3      21.200  84.054  11.423  1.00 35.79     0.178 C 
HETATM   11  C4  SGN C   3      20.358  85.205  10.845  1.00 36.62     0.186 C 
HETATM   12  C5  SGN C   3      21.269  86.282  10.269  1.00 39.32     0.181 C 
HETATM   13  O5  SGN C   3      22.193  86.738  11.274  1.00 37.58    -0.349 OA
BRANCH   9  14
HETATM   14  N2  SGN C   3      23.229  83.476  12.613  1.00 29.28    -0.289 N 
ATOM     15  H2  SGN C   3      23.877  83.138  11.903  1.00  0.00     0.175 HD
BRANCH  14  16
HETATM   16  S1  SGN C   3      23.182  82.801  14.120  1.00 27.84     0.205 S 
HETATM   17  O1S SGN C   3      21.972  83.332  14.719  1.00 27.65    -0.578 OA
HETATM   18  O2S SGN C   3      24.421  83.277  14.802  1.00 27.72    -0.578 OA
HETATM   19  O3S SGN C   3      23.149  81.309  13.995  1.00 28.50    -0.578 OA
ENDBRANCH  14  16
ENDBRANCH   9  14
BRANCH  10  20
HETATM   20  O3  SGN C   3      20.366  83.155  12.149  1.00 34.89    -0.391 OA
ATOM     21  H3  SGN C   3      20.865  82.381  12.386  1.00  0.00     0.210 HD
ENDBRANCH  10  20
BRANCH  11  22
HETATM   22  O4  SGN C   3      19.525  84.697   9.788  1.00 37.13    -0.348 OA
BRANCH  22  23
HETATM   23  C1  UAP C   4      18.165  84.693  10.055  1.00 39.64     0.294 C 
HETATM   24  C2  UAP C   4      17.690  83.276  10.320  1.00 38.70     0.228 C 
HETATM   25  C3  UAP C   4      16.176  83.259  10.517  1.00 38.51     0.156 C 
HETATM   26  C4  UAP C   4      15.626  84.469  11.405  1.00 38.14     0.077 C 
HETATM   27  C5  UAP C   4      16.567  85.473  11.677  1.00 38.51     0.228 C 
HETATM   28  O5  UAP C   4      17.949  85.481  11.217  1.00 37.46    -0.343 OA
BRANCH  24  29
HETATM   29  O2  UAP C   4      17.988  82.421   9.170  1.00 40.54    -0.244 OA
BRANCH  29  30
HETATM   30  S   UAP C   4      18.590  80.951   9.368  1.00 40.49     0.252 S 
HETATM   31  O1S UAP C   4      19.560  80.736   8.285  1.00 40.89    -0.572 OA
HETATM   32  O2S UAP C   4      17.460  80.014   9.279  1.00 37.88    -0.572 OA
HETATM   33  O3S UAP C   4      19.229  80.921  10.693  1.00 37.47    -0.572 OA
ENDBRANCH  29  30
ENDBRANCH  24  29
BRANCH  25  34
HETATM   34  O3  UAP C   4      15.802  82.030  11.118  1.00 38.58    -0.393 OA
ATOM     35  H3  UAP C   4      15.225  82.207  11.851  1.00  0.00     0.210 HD
ENDBRANCH  25  34
BRANCH  27  36
HETATM   36  C6  UAP C   4      16.252  86.659  12.521  1.00 37.96     0.203 C 
HETATM   37  O6A UAP C   4      15.064  86.847  12.852  1.00 40.05    -0.646 OA
HETATM   38  O6B UAP C   4      17.191  87.412  12.858  1.00 36.71    -0.646 OA
ENDBRANCH  27  36
ENDBRANCH  22  23
ENDBRANCH  11  22
BRANCH  12  39
HETATM   39  C6  SGN C   3      20.543  87.493   9.753  1.00 42.65     0.227 C 
BRANCH  39  40
HETATM   40  O6  SGN C   3      20.821  88.548  10.700  1.00 51.09    -0.254 OA
BRANCH  40  41
HETATM   41  S2  SGN C   3      21.556  89.841  10.124  1.00 54.80     0.251 S 
HETATM   42  O4S SGN C   3      21.764  89.625   8.681  1.00 54.99    -0.572 OA
HETATM   43  O5S SGN C   3      22.851  89.959  10.859  1.00 53.99    -0.572 OA
HETATM   44  O6S SGN C   3      20.678  90.976  10.379  1.00 55.43    -0.572 OA
ENDBRANCH  40  41
ENDBRANCH  39  40
ENDBRANCH  12  39
ENDBRANCH   7   8
ENDBRANCH   4   7
BRANCH   3  45
HETATM   45  O3  IDS C   2      25.337  88.133  11.142  1.00 39.65    -0.390 OA
ATOM     46  H3  IDS C   2      26.191  88.412  10.835  1.00  0.00     0.210 HD
ENDBRANCH   3  45
BRANCH   5  47
HETATM   47  C6  IDS C   2      25.903  83.277  10.301  1.00 36.10     0.206 C 
HETATM   48  O6A IDS C   2      25.491  82.335  11.013  1.00 32.44    -0.646 OA
HETATM   49  O6B IDS C   2      26.037  83.209   9.056  1.00 33.44    -0.646 OA
ENDBRANCH   5  47
BRANCH   2  50
HETATM   50  O2  IDS C   2      26.888  87.817  13.439  1.00 43.59    -0.244 OA
BRANCH  50  51
HETATM   51  S   IDS C   2      28.031  88.922  13.293  1.00 44.11     0.252 S 
HETATM   52  O1S IDS C   2      27.693  89.738  12.078  1.00 44.48    -0.572 OA
HETATM   53  O2S IDS C   2      29.313  88.202  13.141  1.00 44.29    -0.572 OA
HETATM   54  O3S IDS C   2      28.003  89.720  14.505  1.00 44.74    -0.572 OA
ENDBRANCH  50  51
ENDBRANCH   2  50
BRANCH   1  55
HETATM   55  O4  SGN C   1      28.284  85.065  13.271  1.00 44.73    -0.348 OA
BRANCH  55  56
HETATM   56  C4  SGN C   1      28.639  83.967  14.139  1.00 48.25     0.186 C 
HETATM   57  C3  SGN C   1      29.662  83.063  13.440  1.00 48.43     0.178 C 
HETATM   58  C2  SGN C   1      30.159  81.989  14.406  1.00 48.58     0.181 C 
HETATM   59  C1  SGN C   1      30.676  82.600  15.707  1.00 50.40     0.283 C 
HETATM   60  O5  SGN C   1      29.667  83.426  16.300  1.00 50.82    -0.349 OA
HETATM   61  C5  SGN C   1      29.250  84.512  15.441  1.00 51.58     0.181 C 
BRANCH  57  62
HETATM   62  O3  SGN C   1      29.066  82.440  12.313  1.00 46.09    -0.391 OA
ATOM     63  H3  SGN C   1      28.456  83.045  11.906  1.00  0.00     0.210 HD
ENDBRANCH  57  62
BRANCH  58  64
HETATM   64  N2  SGN C   1      31.205  81.199  13.789  1.00 48.56    -0.289 N 
ATOM     65  H2  SGN C   1      32.155  81.547  13.661  1.00  0.00     0.175 HD
BRANCH  64  66
HETATM   66  S1  SGN C   1      30.734  79.687  13.310  1.00 47.67     0.205 S 
HETATM   67  O1S SGN C   1      30.778  79.677  11.832  1.00 47.59    -0.578 OA
HETATM   68  O2S SGN C   1      29.373  79.519  13.831  1.00 48.55    -0.578 OA
HETATM   69  O3S SGN C   1      31.693  78.735  13.910  1.00 47.08    -0.578 OA
ENDBRANCH  64  66
ENDBRANCH  58  64
BRANCH  59  70
HETATM   70  O1  SGN C   1      31.794  83.380  15.450  1.00 51.36    -0.369 OA
ATOM     71  H1  SGN C   1      31.625  84.280  15.704  1.00  0.00     0.212 HD
ENDBRANCH  59  70
BRANCH  61  72
HETATM   72  C6  SGN C   1      28.275  85.343  16.238  1.00 55.48     0.227 C 
BRANCH  72  73
HETATM   73  O6  SGN C   1      28.650  86.735  16.159  1.00 61.59    -0.254 OA
BRANCH  73  74
HETATM   74  S2  SGN C   1      28.322  87.598  17.458  1.00 65.98     0.251 S 
HETATM   75  O4S SGN C   1      28.648  86.727  18.673  1.00 65.09    -0.572 OA
HETATM   76  O5S SGN C   1      26.909  87.926  17.391  1.00 65.58    -0.572 OA
HETATM   77  O6S SGN C   1      29.218  88.875  17.399  1.00 65.84    -0.572 OA
ENDBRANCH  73  74
ENDBRANCH  72  73
ENDBRANCH  61  72
ENDBRANCH  55  56
ENDBRANCH   1  55
TORSDOF 27
ENDMDL
MODEL 26
REMARK VINA RESULT:      -6.3      4.798     13.999
REMARK  27 active torsions:
REMARK  status: ('A' for Active; 'I' for Inactive)
REMARK    1  A    between atoms: C1_1  and  O1_2 
REMARK    2  A    between atoms: S1_5  and  N2_7 
REMARK    3  A    between atoms: C2_6  and  N2_7 
REMARK    4  A    between atoms: S2_10  and  O6_22 
REMARK    5  A    between atoms: C3_11  and  O3_12 
REMARK    6  A    between atoms: C4_15  and  O4_16 
REMARK    7  A    between atoms: O4_16  and  C1_24 
REMARK    8  A    between atoms: C5_18  and  C6_21 
REMARK    9  A    between atoms: C6_21  and  O6_22 
REMARK   10  A    between atoms: C2_26  and  O2_27 
REMARK   11  A    between atoms: O2_27  and  S_40 
REMARK   12  A    between atoms: C3_29  and  O3_30 
REMARK   13  A    between atoms: C4_33  and  O4_34 
REMARK   14  A    between atoms: O4_34  and  C1_41 
REMARK   15  A    between atoms: C5_35  and  C6_37 
REMARK   16  A    between atoms: S1_43  and  N2_45 
REMARK   17  A    between atoms: C2_44  and  N2_45 
REMARK   18  A    between atoms: S2_48  and  O6_60 
REMARK   19  A    between atoms: C3_49  and  O3_50 
REMARK   20  A    between atoms: C4_53  and  O4_54 
REMARK   21  A    between atoms: O4_54  and  C1_62 
REMARK   22  A    between atoms: C5_56  and  C6_59 
REMARK   23  A    between atoms: C6_59  and  O6_60 
REMARK   24  A    between atoms: C2_64  and  O2_65 
REMARK   25  A    between atoms: O2_65  and  S_77 
REMARK   26  A    between atoms: C3_67  and  O3_68 
REMARK   27  A    between atoms: C5_72  and  C6_74 
ROOT
HETATM    1  C1  IDS C   2      33.070  70.022  20.181  1.00 40.81     0.294 C 
HETATM    2  C2  IDS C   2      34.035  71.046  20.786  1.00 40.20     0.231 C 
HETATM    3  C3  IDS C   2      33.433  72.448  20.761  1.00 39.01     0.185 C 
HETATM    4  C4  IDS C   2      33.119  72.890  19.318  1.00 37.65     0.195 C 
HETATM    5  C5  IDS C   2      33.003  71.659  18.410  1.00 35.99     0.257 C 
HETATM    6  O5  IDS C   2      32.298  70.604  19.107  1.00 39.00    -0.340 OA
ENDROOT
BRANCH   4   7
HETATM    7  O4  IDS C   2      31.881  73.643  19.293  1.00 35.98    -0.348 OA
BRANCH   7   8
HETATM    8  C1  SGN C   3      31.988  75.014  19.569  1.00 35.40     0.287 C 
HETATM    9  C2  SGN C   3      30.655  75.721  19.263  1.00 33.71     0.182 C 
HETATM   10  C3  SGN C   3      30.397  75.851  17.757  1.00 35.79     0.178 C 
HETATM   11  C4  SGN C   3      31.636  76.364  17.004  1.00 36.62     0.186 C 
HETATM   12  C5  SGN C   3      32.867  75.567  17.416  1.00 39.32     0.181 C 
HETATM   13  O5  SGN C   3      33.039  75.626  18.843  1.00 37.58    -0.349 OA
BRANCH   9  14
HETATM   14  N2  SGN C   3      29.567  74.979  19.860  1.00 29.28    -0.289 N 
ATOM     15  H2  SGN C   3      29.418  73.994  19.642  1.00  0.00     0.175 HD
BRANCH  14  16
HETATM   16  S1  SGN C   3      28.574  75.784  20.907  1.00 27.84     0.205 S 
HETATM   17  O1S SGN C   3      27.903  74.735  21.651  1.00 27.65    -0.578 OA
HETATM   18  O2S SGN C   3      27.642  76.564  20.041  1.00 27.72    -0.578 OA
HETATM   19  O3S SGN C   3      29.396  76.672  21.788  1.00 28.50    -0.578 OA
ENDBRANCH  14  16
ENDBRANCH   9  14
BRANCH  10  20
HETATM   20  O3  SGN C   3      29.294  76.726  17.538  1.00 34.89    -0.391 OA
ATOM     21  H3  SGN C   3      29.175  76.859  16.605  1.00  0.00     0.210 HD
ENDBRANCH  10  20
BRANCH  11  22
HETATM   22  O4  SGN C   3      31.433  76.193  15.589  1.00 37.13    -0.348 OA
BRANCH  22  23
HETATM   23  C1  UAP C   4      31.502  77.354  14.836  1.00 39.64     0.294 C 
HETATM   24  C2  UAP C   4      30.996  77.093  13.428  1.00 38.70     0.228 C 
HETATM   25  C3  UAP C   4      31.163  78.346  12.572  1.00 38.51     0.156 C 
HETATM   26  C4  UAP C   4      30.775  79.701  13.325  1.00 38.14     0.077 C 
HETATM   27  C5  UAP C   4      30.560  79.565  14.704  1.00 38.51     0.228 C 
HETATM   28  O5  UAP C   4      30.669  78.324  15.457  1.00 37.46    -0.343 OA
BRANCH  24  29
HETATM   29  O2  UAP C   4      31.781  76.029  12.800  1.00 40.54    -0.244 OA
BRANCH  29  30
HETATM   30  S   UAP C   4      31.124  74.609  12.463  1.00 40.49     0.252 S 
HETATM   31  O1S UAP C   4      32.014  73.581  13.024  1.00 40.89    -0.572 OA
HETATM   32  O2S UAP C   4      31.044  74.515  10.998  1.00 37.88    -0.572 OA
HETATM   33  O3S UAP C   4      29.794  74.587  13.092  1.00 37.47    -0.572 OA
ENDBRANCH  29  30
ENDBRANCH  24  29
BRANCH  25  34
HETATM   34  O3  UAP C   4      30.368  78.215  11.403  1.00 38.58    -0.393 OA
ATOM     35  H3  UAP C   4      30.224  79.077  11.030  1.00  0.00     0.210 HD
ENDBRANCH  25  34
BRANCH  27  36
HETATM   36  C6  UAP C   4      30.152  80.709  15.567  1.00 37.96     0.203 C 
HETATM   37  O6A UAP C   4      29.229  81.446  15.170  1.00 40.05    -0.646 OA
HETATM   38  O6B UAP C   4      30.755  80.878  16.648  1.00 36.71    -0.646 OA
ENDBRANCH  27  36
ENDBRANCH  22  23
ENDBRANCH  11  22
BRANCH  12  39
HETATM   39  C6  SGN C   3      34.149  76.047  16.796  1.00 42.65     0.227 C 
BRANCH  39  40
HETATM   40  O6  SGN C   3      34.781  76.875  17.797  1.00 51.09    -0.254 OA
BRANCH  40  41
HETATM   41  S2  SGN C   3      36.370  76.768  17.903  1.00 54.80     0.251 S 
HETATM   42  O4S SGN C   3      36.865  78.057  18.420  1.00 54.99    -0.572 OA
HETATM   43  O5S SGN C   3      36.873  76.494  16.524  1.00 53.99    -0.572 OA
HETATM   44  O6S SGN C   3      36.660  75.672  18.819  1.00 55.43    -0.572 OA
ENDBRANCH  40  41
ENDBRANCH  39  40
ENDBRANCH  12  39
ENDBRANCH   7   8
ENDBRANCH   4   7
BRANCH   3  45
HETATM   45  O3  IDS C   2      34.340  73.363  21.360  1.00 39.65    -0.390 OA
ATOM     46  H3  IDS C   2      34.969  72.886  21.888  1.00  0.00     0.210 HD
ENDBRANCH   3  45
BRANCH   5  47
HETATM   47  C6  IDS C   2      32.289  71.901  17.087  1.00 36.10     0.206 C 
HETATM   48  O6A IDS C   2      32.832  72.677  16.269  1.00 32.44    -0.646 OA
HETATM   49  O6B IDS C   2      31.207  71.303  16.875  1.00 33.44    -0.646 OA
ENDBRANCH   5  47
BRANCH   2  50
HETATM   50  O2  IDS C   2      34.318  70.694  22.171  1.00 43.59    -0.244 OA
BRANCH  50  51
HETATM   51  S   IDS C   2      35.772  70.966  22.772  1.00 44.11     0.252 S 
HETATM   52  O1S IDS C   2      35.638  72.115  23.731  1.00 44.48    -0.572 OA
HETATM   53  O2S IDS C   2      36.658  71.290  21.634  1.00 44.29    -0.572 OA
HETATM   54  O3S IDS C   2      36.184  69.747  23.445  1.00 44.74    -0.572 OA
ENDBRANCH  50  51
ENDBRANCH   2  50
BRANCH   1  55
HETATM   55  O4  SGN C   1      33.790  68.948  19.677  1.00 44.73    -0.348 OA
BRANCH  55  56
HETATM   56  C4  SGN C   1      34.819  68.380  20.516  1.00 48.25     0.186 C 
HETATM   57  C3  SGN C   1      34.224  67.264  21.383  1.00 48.43     0.178 C 
HETATM   58  C2  SGN C   1      35.333  66.553  22.158  1.00 48.58     0.181 C 
HETATM   59  C1  SGN C   1      36.448  66.073  21.230  1.00 50.40     0.283 C 
HETATM   60  O5  SGN C   1      36.952  67.169  20.457  1.00 50.82    -0.349 OA
HETATM   61  C5  SGN C   1      35.939  67.797  19.637  1.00 51.58     0.181 C 
BRANCH  57  62
HETATM   62  O3  SGN C   1      33.289  67.810  22.299  1.00 46.09    -0.391 OA
ATOM     63  H3  SGN C   1      32.912  68.600  21.929  1.00  0.00     0.210 HD
ENDBRANCH  57  62
BRANCH  58  64
HETATM   64  N2  SGN C   1      34.795  65.428  22.894  1.00 48.56    -0.289 N 
ATOM     65  H2  SGN C   1      34.335  64.640  22.438  1.00  0.00     0.175 HD
BRANCH  64  66
HETATM   66  S1  SGN C   1      34.987  65.525  24.535  1.00 47.67     0.205 S 
HETATM   67  O1S SGN C   1      34.775  64.162  25.069  1.00 47.59    -0.578 OA
HETATM   68  O2S SGN C   1      33.964  66.471  24.992  1.00 48.55    -0.578 OA
HETATM   69  O3S SGN C   1      36.361  66.018  24.772  1.00 47.08    -0.578 OA
ENDBRANCH  64  66
ENDBRANCH  58  64
BRANCH  59  70
HETATM   70  O1  SGN C   1      35.957  65.108  20.363  1.00 51.36    -0.369 OA
ATOM     71  H1  SGN C   1      35.624  64.369  20.857  1.00  0.00     0.212 HD
ENDBRANCH  59  70
BRANCH  61  72
HETATM   72  C6  SGN C   1      36.640  68.849  18.815  1.00 55.48     0.227 C 
BRANCH  72  73
HETATM   73  O6  SGN C   1      36.615  68.469  17.422  1.00 61.59    -0.254 OA
BRANCH  73  74
HETATM   74  S2  SGN C   1      35.836  69.473  16.461  1.00 65.98     0.251 S 
HETATM   75  O4S SGN C   1      36.044  70.884  17.017  1.00 65.09    -0.572 OA
HETATM   76  O5S SGN C   1      34.439  69.080  16.496  1.00 65.58    -0.572 OA
HETATM   77  O6S SGN C   1      36.449  69.314  15.034  1.00 65.84    -0.572 OA
ENDBRANCH  73  74
ENDBRANCH  72  73
ENDBRANCH  61  72
ENDBRANCH  55  56
ENDBRANCH   1  55
TORSDOF 27
ENDMDL
MODEL 27
REMARK VINA RESULT:      -6.1      7.537     12.801
REMARK  27 active torsions:
REMARK  status: ('A' for Active; 'I' for Inactive)
REMARK    1  A    between atoms: C1_1  and  O1_2 
REMARK    2  A    between atoms: S1_5  and  N2_7 
REMARK    3  A    between atoms: C2_6  and  N2_7 
REMARK    4  A    between atoms: S2_10  and  O6_22 
REMARK    5  A    between atoms: C3_11  and  O3_12 
REMARK    6  A    between atoms: C4_15  and  O4_16 
REMARK    7  A    between atoms: O4_16  and  C1_24 
REMARK    8  A    between atoms: C5_18  and  C6_21 
REMARK    9  A    between atoms: C6_21  and  O6_22 
REMARK   10  A    between atoms: C2_26  and  O2_27 
REMARK   11  A    between atoms: O2_27  and  S_40 
REMARK   12  A    between atoms: C3_29  and  O3_30 
REMARK   13  A    between atoms: C4_33  and  O4_34 
REMARK   14  A    between atoms: O4_34  and  C1_41 
REMARK   15  A    between atoms: C5_35  and  C6_37 
REMARK   16  A    between atoms: S1_43  and  N2_45 
REMARK   17  A    between atoms: C2_44  and  N2_45 
REMARK   18  A    between atoms: S2_48  and  O6_60 
REMARK   19  A    between atoms: C3_49  and  O3_50 
REMARK   20  A    between atoms: C4_53  and  O4_54 
REMARK   21  A    between atoms: O4_54  and  C1_62 
REMARK   22  A    between atoms: C5_56  and  C6_59 
REMARK   23  A    between atoms: C6_59  and  O6_60 
REMARK   24  A    between atoms: C2_64  and  O2_65 
REMARK   25  A    between atoms: O2_65  and  S_77 
REMARK   26  A    between atoms: C3_67  and  O3_68 
REMARK   27  A    between atoms: C5_72  and  C6_74 
ROOT
HETATM    1  C1  IDS C   2      32.590  72.640  17.449  1.00 40.81     0.294 C 
HETATM    2  C2  IDS C   2      32.072  72.943  18.858  1.00 40.20     0.231 C 
HETATM    3  C3  IDS C   2      32.983  72.334  19.919  1.00 39.01     0.185 C 
HETATM    4  C4  IDS C   2      33.066  70.802  19.765  1.00 37.65     0.195 C 
HETATM    5  C5  IDS C   2      32.664  70.400  18.340  1.00 35.99     0.257 C 
HETATM    6  O5  IDS C   2      33.220  71.342  17.393  1.00 39.00    -0.340 OA
ENDROOT
BRANCH   4   7
HETATM    7  O4  IDS C   2      34.415  70.352  20.046  1.00 35.98    -0.348 OA
BRANCH   7   8
HETATM    8  C1  SGN C   3      35.373  71.357  20.238  1.00 35.40     0.287 C 
HETATM    9  C2  SGN C   3      36.628  71.060  19.398  1.00 33.71     0.182 C 
HETATM   10  C3  SGN C   3      37.452  69.902  19.972  1.00 35.79     0.178 C 
HETATM   11  C4  SGN C   3      37.658  70.040  21.490  1.00 36.62     0.186 C 
HETATM   12  C5  SGN C   3      36.329  70.334  22.174  1.00 39.32     0.181 C 
HETATM   13  O5  SGN C   3      35.726  71.508  21.601  1.00 37.58    -0.349 OA
BRANCH   9  14
HETATM   14  N2  SGN C   3      36.236  70.727  18.046  1.00 29.28    -0.289 N 
ATOM     15  H2  SGN C   3      35.667  69.904  17.849  1.00  0.00     0.175 HD
BRANCH  14  16
HETATM   16  S1  SGN C   3      36.744  71.727  16.833  1.00 27.84     0.205 S 
HETATM   17  O1S SGN C   3      38.180  71.528  16.774  1.00 27.65    -0.578 OA
HETATM   18  O2S SGN C   3      36.370  73.102  17.277  1.00 27.72    -0.578 OA
HETATM   19  O3S SGN C   3      36.063  71.346  15.556  1.00 28.50    -0.578 OA
ENDBRANCH  14  16
ENDBRANCH   9  14
BRANCH  10  20
HETATM   20  O3  SGN C   3      38.713  69.842  19.311  1.00 34.89    -0.391 OA
ATOM     21  H3  SGN C   3      38.729  69.093  18.726  1.00  0.00     0.210 HD
ENDBRANCH  10  20
BRANCH  11  22
HETATM   22  O4  SGN C   3      38.178  68.804  22.012  1.00 37.13    -0.348 OA
BRANCH  22  23
HETATM   23  C1  UAP C   4      39.400  68.900  22.659  1.00 39.64     0.294 C 
HETATM   24  C2  UAP C   4      40.472  68.182  21.859  1.00 38.70     0.228 C 
HETATM   25  C3  UAP C   4      41.795  68.204  22.619  1.00 38.51     0.156 C 
HETATM   26  C4  UAP C   4      42.118  69.607  23.315  1.00 38.14     0.077 C 
HETATM   27  C5  UAP C   4      41.054  70.520  23.316  1.00 38.51     0.228 C 
HETATM   28  O5  UAP C   4      39.734  70.279  22.751  1.00 37.46    -0.343 OA
BRANCH  24  29
HETATM   29  O2  UAP C   4      40.103  66.778  21.669  1.00 40.54    -0.244 OA
BRANCH  29  30
HETATM   30  S   UAP C   4      40.120  66.110  20.215  1.00 40.49     0.252 S 
HETATM   31  O1S UAP C   4      39.343  64.865  20.306  1.00 40.89    -0.572 OA
HETATM   32  O2S UAP C   4      41.528  65.848  19.885  1.00 37.88    -0.572 OA
HETATM   33  O3S UAP C   4      39.506  67.074  19.288  1.00 37.47    -0.572 OA
ENDBRANCH  29  30
ENDBRANCH  24  29
BRANCH  25  34
HETATM   34  O3  UAP C   4      42.846  67.871  21.726  1.00 38.58    -0.393 OA
ATOM     35  H3  UAP C   4      43.653  67.782  22.219  1.00  0.00     0.210 HD
ENDBRANCH  25  34
BRANCH  27  36
HETATM   36  C6  UAP C   4      41.177  71.892  23.883  1.00 37.96     0.203 C 
HETATM   37  O6A UAP C   4      42.322  72.347  24.080  1.00 40.05    -0.646 OA
HETATM   38  O6B UAP C   4      40.129  72.523  24.137  1.00 36.71    -0.646 OA
ENDBRANCH  27  36
ENDBRANCH  22  23
ENDBRANCH  11  22
BRANCH  12  39
HETATM   39  C6  SGN C   3      36.436  70.571  23.655  1.00 42.65     0.227 C 
BRANCH  39  40
HETATM   40  O6  SGN C   3      35.460  69.696  24.262  1.00 51.09    -0.254 OA
BRANCH  40  41
HETATM   41  S2  SGN C   3      36.034  68.432  25.049  1.00 54.80     0.251 S 
HETATM   42  O4S SGN C   3      36.087  67.307  24.098  1.00 54.99    -0.572 OA
HETATM   43  O5S SGN C   3      35.089  68.164  26.173  1.00 53.99    -0.572 OA
HETATM   44  O6S SGN C   3      37.361  68.799  25.526  1.00 55.43    -0.572 OA
ENDBRANCH  40  41
ENDBRANCH  39  40
ENDBRANCH  12  39
ENDBRANCH   7   8
ENDBRANCH   4   7
BRANCH   3  45
HETATM   45  O3  IDS C   2      32.491  72.663  21.211  1.00 39.65    -0.390 OA
ATOM     46  H3  IDS C   2      31.618  73.028  21.134  1.00  0.00     0.210 HD
ENDBRANCH   3  45
BRANCH   5  47
HETATM   47  C6  IDS C   2      33.099  69.002  17.920  1.00 36.10     0.206 C 
HETATM   48  O6A IDS C   2      33.996  68.911  17.052  1.00 32.44    -0.646 OA
HETATM   49  O6B IDS C   2      32.553  68.017  18.471  1.00 33.44    -0.646 OA
ENDBRANCH   5  47
BRANCH   2  50
HETATM   50  O2  IDS C   2      32.028  74.384  19.066  1.00 43.59    -0.244 OA
BRANCH  50  51
HETATM   51  S   IDS C   2      30.661  75.075  19.514  1.00 44.11     0.252 S 
HETATM   52  O1S IDS C   2      29.901  74.056  20.314  1.00 44.48    -0.572 OA
HETATM   53  O2S IDS C   2      29.946  75.462  18.280  1.00 44.29    -0.572 OA
HETATM   54  O3S IDS C   2      31.017  76.233  20.315  1.00 44.74    -0.572 OA
ENDBRANCH  50  51
ENDBRANCH   2  50
BRANCH   1  55
HETATM   55  O4  SGN C   1      31.530  72.656  16.553  1.00 44.73    -0.348 OA
BRANCH  55  56
HETATM   56  C4  SGN C   1      31.838  72.507  15.150  1.00 48.25     0.186 C 
HETATM   57  C3  SGN C   1      30.773  71.634  14.475  1.00 48.43     0.178 C 
HETATM   58  C2  SGN C   1      31.003  71.599  12.965  1.00 48.58     0.181 C 
HETATM   59  C1  SGN C   1      31.095  73.006  12.378  1.00 50.40     0.283 C 
HETATM   60  O5  SGN C   1      32.109  73.757  13.056  1.00 50.82    -0.349 OA
HETATM   61  C5  SGN C   1      31.861  73.890  14.475  1.00 51.58     0.181 C 
BRANCH  57  62
HETATM   62  O3  SGN C   1      30.834  70.313  14.989  1.00 46.09    -0.391 OA
ATOM     63  H3  SGN C   1      30.789  69.694  14.270  1.00  0.00     0.210 HD
ENDBRANCH  57  62
BRANCH  58  64
HETATM   64  N2  SGN C   1      29.939  70.867  12.308  1.00 48.56    -0.289 N 
ATOM     65  H2  SGN C   1      29.084  70.587  12.789  1.00  0.00     0.175 HD
BRANCH  64  66
HETATM   66  S1  SGN C   1      30.222  70.523  10.715  1.00 47.67     0.205 S 
HETATM   67  O1S SGN C   1      29.471  69.287  10.407  1.00 47.59    -0.578 OA
HETATM   68  O2S SGN C   1      31.673  70.339  10.608  1.00 48.55    -0.578 OA
HETATM   69  O3S SGN C   1      29.739  71.686   9.938  1.00 47.08    -0.578 OA
ENDBRANCH  64  66
ENDBRANCH  58  64
BRANCH  59  70
HETATM   70  O1  SGN C   1      29.882  73.662  12.530  1.00 51.36    -0.369 OA
ATOM     71  H1  SGN C   1      29.383  73.609  11.723  1.00  0.00     0.212 HD
ENDBRANCH  59  70
BRANCH  61  72
HETATM   72  C6  SGN C   1      32.946  74.785  15.021  1.00 55.48     0.227 C 
BRANCH  72  73
HETATM   73  O6  SGN C   1      32.388  75.665  16.020  1.00 61.59    -0.254 OA
BRANCH  73  74
HETATM   74  S2  SGN C   1      33.398  76.749  16.607  1.00 65.98     0.251 S 
HETATM   75  O4S SGN C   1      32.565  77.764  17.393  1.00 65.09    -0.572 OA
HETATM   76  O5S SGN C   1      34.058  77.359  15.468  1.00 65.58    -0.572 OA
HETATM   77  O6S SGN C   1      34.406  75.988  17.525  1.00 65.84    -0.572 OA
ENDBRANCH  73  74
ENDBRANCH  72  73
ENDBRANCH  61  72
ENDBRANCH  55  56
ENDBRANCH   1  55
TORSDOF 27
ENDMDL
MODEL 28
REMARK VINA RESULT:      -6.1      5.576      9.792
REMARK  27 active torsions:
REMARK  status: ('A' for Active; 'I' for Inactive)
REMARK    1  A    between atoms: C1_1  and  O1_2 
REMARK    2  A    between atoms: S1_5  and  N2_7 
REMARK    3  A    between atoms: C2_6  and  N2_7 
REMARK    4  A    between atoms: S2_10  and  O6_22 
REMARK    5  A    between atoms: C3_11  and  O3_12 
REMARK    6  A    between atoms: C4_15  and  O4_16 
REMARK    7  A    between atoms: O4_16  and  C1_24 
REMARK    8  A    between atoms: C5_18  and  C6_21 
REMARK    9  A    between atoms: C6_21  and  O6_22 
REMARK   10  A    between atoms: C2_26  and  O2_27 
REMARK   11  A    between atoms: O2_27  and  S_40 
REMARK   12  A    between atoms: C3_29  and  O3_30 
REMARK   13  A    between atoms: C4_33  and  O4_34 
REMARK   14  A    between atoms: O4_34  and  C1_41 
REMARK   15  A    between atoms: C5_35  and  C6_37 
REMARK   16  A    between atoms: S1_43  and  N2_45 
REMARK   17  A    between atoms: C2_44  and  N2_45 
REMARK   18  A    between atoms: S2_48  and  O6_60 
REMARK   19  A    between atoms: C3_49  and  O3_50 
REMARK   20  A    between atoms: C4_53  and  O4_54 
REMARK   21  A    between atoms: O4_54  and  C1_62 
REMARK   22  A    between atoms: C5_56  and  C6_59 
REMARK   23  A    between atoms: C6_59  and  O6_60 
REMARK   24  A    between atoms: C2_64  and  O2_65 
REMARK   25  A    between atoms: O2_65  and  S_77 
REMARK   26  A    between atoms: C3_67  and  O3_68 
REMARK   27  A    between atoms: C5_72  and  C6_74 
ROOT
HETATM    1  C1  IDS C   2      28.249  87.796  14.184  1.00 40.81     0.294 C 
HETATM    2  C2  IDS C   2      28.270  86.903  15.427  1.00 40.20     0.231 C 
HETATM    3  C3  IDS C   2      28.743  85.493  15.082  1.00 39.01     0.185 C 
HETATM    4  C4  IDS C   2      27.811  84.836  14.045  1.00 37.65     0.195 C 
HETATM    5  C5  IDS C   2      27.027  85.917  13.290  1.00 35.99     0.257 C 
HETATM    6  O5  IDS C   2      27.896  87.039  13.005  1.00 39.00    -0.340 OA
ENDROOT
BRANCH   4   7
HETATM    7  O4  IDS C   2      28.592  84.048  13.112  1.00 35.98    -0.348 OA
BRANCH   7   8
HETATM    8  C1  SGN C   3      28.975  82.773  13.553  1.00 35.40     0.287 C 
HETATM    9  C2  SGN C   3      30.317  82.374  12.915  1.00 33.71     0.182 C 
HETATM   10  C3  SGN C   3      30.175  82.025  11.429  1.00 35.79     0.178 C 
HETATM   11  C4  SGN C   3      28.985  81.084  11.171  1.00 36.62     0.186 C 
HETATM   12  C5  SGN C   3      27.739  81.615  11.868  1.00 39.32     0.181 C 
HETATM   13  O5  SGN C   3      27.994  81.791  13.272  1.00 37.58    -0.349 OA
BRANCH   9  14
HETATM   14  N2  SGN C   3      31.259  83.463  13.049  1.00 29.28    -0.289 N 
ATOM     15  H2  SGN C   3      31.108  84.353  12.574  1.00  0.00     0.175 HD
BRANCH  14  16
HETATM   16  S1  SGN C   3      32.587  83.216  14.000  1.00 27.84     0.205 S 
HETATM   17  O1S SGN C   3      33.363  84.435  13.866  1.00 27.65    -0.578 OA
HETATM   18  O2S SGN C   3      33.273  82.027  13.413  1.00 27.72    -0.578 OA
HETATM   19  O3S SGN C   3      32.151  82.971  15.411  1.00 28.50    -0.578 OA
ENDBRANCH  14  16
ENDBRANCH   9  14
BRANCH  10  20
HETATM   20  O3  SGN C   3      31.382  81.425  10.964  1.00 34.89    -0.391 OA
ATOM     21  H3  SGN C   3      32.125  81.843  11.383  1.00  0.00     0.210 HD
ENDBRANCH  10  20
BRANCH  11  22
HETATM   22  O4  SGN C   3      28.729  81.024   9.757  1.00 37.13    -0.348 OA
BRANCH  22  23
HETATM   23  C1  UAP C   4      29.268  79.928   9.102  1.00 39.64     0.294 C 
HETATM   24  C2  UAP C   4      28.276  79.386   8.088  1.00 38.70     0.228 C 
HETATM   25  C3  UAP C   4      28.831  78.122   7.437  1.00 38.51     0.156 C 
HETATM   26  C4  UAP C   4      30.385  78.211   7.071  1.00 38.14     0.077 C 
HETATM   27  C5  UAP C   4      31.048  79.329   7.597  1.00 38.51     0.228 C 
HETATM   28  O5  UAP C   4      30.438  80.362   8.421  1.00 37.46    -0.343 OA
BRANCH  24  29
HETATM   29  O2  UAP C   4      27.025  79.019   8.754  1.00 40.54    -0.244 OA
BRANCH  29  30
HETATM   30  S   UAP C   4      25.610  79.476   8.161  1.00 40.49     0.252 S 
HETATM   31  O1S UAP C   4      24.587  78.633   8.798  1.00 40.89    -0.572 OA
HETATM   32  O2S UAP C   4      25.668  79.256   6.709  1.00 37.88    -0.572 OA
HETATM   33  O3S UAP C   4      25.439  80.898   8.498  1.00 37.47    -0.572 OA
ENDBRANCH  29  30
ENDBRANCH  24  29
BRANCH  25  34
HETATM   34  O3  UAP C   4      28.088  77.844   6.261  1.00 38.58    -0.393 OA
ATOM     35  H3  UAP C   4      28.611  78.076   5.503  1.00  0.00     0.210 HD
ENDBRANCH  25  34
BRANCH  27  36
HETATM   36  C6  UAP C   4      32.488  79.604   7.331  1.00 37.96     0.203 C 
HETATM   37  O6A UAP C   4      32.854  79.726   6.145  1.00 40.05    -0.646 OA
HETATM   38  O6B UAP C   4      33.262  79.697   8.306  1.00 36.71    -0.646 OA
ENDBRANCH  27  36
ENDBRANCH  22  23
ENDBRANCH  11  22
BRANCH  12  39
HETATM   39  C6  SGN C   3      26.536  80.721  11.746  1.00 42.65     0.227 C 
BRANCH  39  40
HETATM   40  O6  SGN C   3      26.786  79.607  12.629  1.00 51.09    -0.254 OA
BRANCH  40  41
HETATM   41  S2  SGN C   3      25.501  78.890  13.247  1.00 54.80     0.251 S 
HETATM   42  O4S SGN C   3      25.978  77.786  14.100  1.00 54.99    -0.572 OA
HETATM   43  O5S SGN C   3      24.695  78.391  12.094  1.00 53.99    -0.572 OA
HETATM   44  O6S SGN C   3      24.785  79.898  14.018  1.00 55.43    -0.572 OA
ENDBRANCH  40  41
ENDBRANCH  39  40
ENDBRANCH  12  39
ENDBRANCH   7   8
ENDBRANCH   4   7
BRANCH   3  45
HETATM   45  O3  IDS C   2      28.782  84.704  16.264  1.00 39.65    -0.390 OA
ATOM     46  H3  IDS C   2      29.665  84.701  16.613  1.00  0.00     0.210 HD
ENDBRANCH   3  45
BRANCH   5  47
HETATM   47  C6  IDS C   2      26.405  85.462  11.977  1.00 36.10     0.206 C 
HETATM   48  O6A IDS C   2      25.769  84.385  11.978  1.00 32.44    -0.646 OA
HETATM   49  O6B IDS C   2      26.547  86.192  10.966  1.00 33.44    -0.646 OA
ENDBRANCH   5  47
BRANCH   2  50
HETATM   50  O2  IDS C   2      29.183  87.461  16.417  1.00 43.59    -0.244 OA
BRANCH  50  51
HETATM   51  S   IDS C   2      28.637  87.843  17.867  1.00 44.11     0.252 S 
HETATM   52  O1S IDS C   2      27.159  88.074  17.727  1.00 44.48    -0.572 OA
HETATM   53  O2S IDS C   2      29.354  89.064  18.292  1.00 44.29    -0.572 OA
HETATM   54  O3S IDS C   2      28.928  86.718  18.737  1.00 44.74    -0.572 OA
ENDBRANCH  50  51
ENDBRANCH   2  50
BRANCH   1  55
HETATM   55  O4  SGN C   1      27.315  88.807  14.356  1.00 44.73    -0.348 OA
BRANCH  55  56
HETATM   56  C4  SGN C   1      26.977  89.611  13.204  1.00 48.25     0.186 C 
HETATM   57  C3  SGN C   1      25.453  89.733  13.086  1.00 48.43     0.178 C 
HETATM   58  C2  SGN C   1      25.090  90.705  11.965  1.00 48.58     0.181 C 
HETATM   59  C1  SGN C   1      25.796  92.049  12.137  1.00 50.40     0.283 C 
HETATM   60  O5  SGN C   1      27.211  91.853  12.238  1.00 50.82    -0.349 OA
HETATM   61  C5  SGN C   1      27.588  91.014  13.354  1.00 51.58     0.181 C 
BRANCH  57  62
HETATM   62  O3  SGN C   1      24.886  88.462  12.807  1.00 46.09    -0.391 OA
ATOM     63  H3  SGN C   1      23.945  88.553  12.708  1.00  0.00     0.210 HD
ENDBRANCH  57  62
BRANCH  58  64
HETATM   64  N2  SGN C   1      23.657  90.911  11.919  1.00 48.56    -0.289 N 
ATOM     65  H2  SGN C   1      23.140  91.364  12.673  1.00  0.00     0.175 HD
BRANCH  64  66
HETATM   66  S1  SGN C   1      22.926  90.352  10.544  1.00 47.67     0.205 S 
HETATM   67  O1S SGN C   1      23.847  90.645   9.424  1.00 47.59    -0.578 OA
HETATM   68  O2S SGN C   1      21.666  91.095  10.442  1.00 48.55    -0.578 OA
HETATM   69  O3S SGN C   1      22.715  88.901  10.736  1.00 47.08    -0.578 OA
ENDBRANCH  64  66
ENDBRANCH  58  64
BRANCH  59  70
HETATM   70  O1  SGN C   1      25.351  92.671  13.295  1.00 51.36    -0.369 OA
ATOM     71  H1  SGN C   1      25.645  92.186  14.056  1.00  0.00     0.212 HD
ENDBRANCH  59  70
BRANCH  61  72
HETATM   72  C6  SGN C   1      29.096  90.991  13.387  1.00 55.48     0.227 C 
BRANCH  72  73
HETATM   73  O6  SGN C   1      29.590  92.288  13.787  1.00 61.59    -0.254 OA
BRANCH  73  74
HETATM   74  S2  SGN C   1      31.135  92.544  13.492  1.00 65.98     0.251 S 
HETATM   75  O4S SGN C   1      31.344  94.060  13.466  1.00 65.09    -0.572 OA
HETATM   76  O5S SGN C   1      31.416  91.937  12.204  1.00 65.58    -0.572 OA
HETATM   77  O6S SGN C   1      31.941  91.865  14.643  1.00 65.84    -0.572 OA
ENDBRANCH  73  74
ENDBRANCH  72  73
ENDBRANCH  61  72
ENDBRANCH  55  56
ENDBRANCH   1  55
TORSDOF 27
ENDMDL
MODEL 29
REMARK VINA RESULT:      -6.1      8.099     14.737
REMARK  27 active torsions:
REMARK  status: ('A' for Active; 'I' for Inactive)
REMARK    1  A    between atoms: C1_1  and  O1_2 
REMARK    2  A    between atoms: S1_5  and  N2_7 
REMARK    3  A    between atoms: C2_6  and  N2_7 
REMARK    4  A    between atoms: S2_10  and  O6_22 
REMARK    5  A    between atoms: C3_11  and  O3_12 
REMARK    6  A    between atoms: C4_15  and  O4_16 
REMARK    7  A    between atoms: O4_16  and  C1_24 
REMARK    8  A    between atoms: C5_18  and  C6_21 
REMARK    9  A    between atoms: C6_21  and  O6_22 
REMARK   10  A    between atoms: C2_26  and  O2_27 
REMARK   11  A    between atoms: O2_27  and  S_40 
REMARK   12  A    between atoms: C3_29  and  O3_30 
REMARK   13  A    between atoms: C4_33  and  O4_34 
REMARK   14  A    between atoms: O4_34  and  C1_41 
REMARK   15  A    between atoms: C5_35  and  C6_37 
REMARK   16  A    between atoms: S1_43  and  N2_45 
REMARK   17  A    between atoms: C2_44  and  N2_45 
REMARK   18  A    between atoms: S2_48  and  O6_60 
REMARK   19  A    between atoms: C3_49  and  O3_50 
REMARK   20  A    between atoms: C4_53  and  O4_54 
REMARK   21  A    between atoms: O4_54  and  C1_62 
REMARK   22  A    between atoms: C5_56  and  C6_59 
REMARK   23  A    between atoms: C6_59  and  O6_60 
REMARK   24  A    between atoms: C2_64  and  O2_65 
REMARK   25  A    between atoms: O2_65  and  S_77 
REMARK   26  A    between atoms: C3_67  and  O3_68 
REMARK   27  A    between atoms: C5_72  and  C6_74 
ROOT
HETATM    1  C1  IDS C   2      36.468  71.953  20.795  1.00 40.81     0.294 C 
HETATM    2  C2  IDS C   2      37.904  71.676  21.247  1.00 40.20     0.231 C 
HETATM    3  C3  IDS C   2      38.013  70.310  21.919  1.00 39.01     0.185 C 
HETATM    4  C4  IDS C   2      37.103  70.230  23.161  1.00 37.65     0.195 C 
HETATM    5  C5  IDS C   2      36.000  71.292  23.068  1.00 35.99     0.257 C 
HETATM    6  O5  IDS C   2      35.512  71.370  21.707  1.00 39.00    -0.340 OA
ENDROOT
BRANCH   4   7
HETATM    7  O4  IDS C   2      36.513  68.909  23.254  1.00 35.98    -0.348 OA
BRANCH   7   8
HETATM    8  C1  SGN C   3      36.692  68.075  22.141  1.00 35.40     0.287 C 
HETATM    9  C2  SGN C   3      35.341  67.480  21.703  1.00 33.71     0.182 C 
HETATM   10  C3  SGN C   3      34.839  66.401  22.670  1.00 35.79     0.178 C 
HETATM   11  C4  SGN C   3      35.946  65.397  23.035  1.00 36.62     0.186 C 
HETATM   12  C5  SGN C   3      37.213  66.140  23.442  1.00 39.32     0.181 C 
HETATM   13  O5  SGN C   3      37.620  67.036  22.393  1.00 37.58    -0.349 OA
BRANCH   9  14
HETATM   14  N2  SGN C   3      34.352  68.533  21.626  1.00 29.28    -0.289 N 
ATOM     15  H2  SGN C   3      34.098  69.079  22.449  1.00  0.00     0.175 HD
BRANCH  14  16
HETATM   16  S1  SGN C   3      33.649  68.818  20.159  1.00 27.84     0.205 S 
HETATM   17  O1S SGN C   3      32.783  69.960  20.386  1.00 27.65    -0.578 OA
HETATM   18  O2S SGN C   3      32.891  67.573  19.839  1.00 27.72    -0.578 OA
HETATM   19  O3S SGN C   3      34.712  69.103  19.145  1.00 28.50    -0.578 OA
ENDBRANCH  14  16
ENDBRANCH   9  14
BRANCH  10  20
HETATM   20  O3  SGN C   3      33.733  65.718  22.086  1.00 34.89    -0.391 OA
ATOM     21  H3  SGN C   3      33.936  64.793  22.011  1.00  0.00     0.210 HD
ENDBRANCH  10  20
BRANCH  11  22
HETATM   22  O4  SGN C   3      35.509  64.595  24.146  1.00 37.13    -0.348 OA
BRANCH  22  23
HETATM   23  C1  UAP C   4      35.314  63.251  23.868  1.00 39.64     0.294 C 
HETATM   24  C2  UAP C   4      34.645  62.565  25.045  1.00 38.70     0.228 C 
HETATM   25  C3  UAP C   4      34.520  61.068  24.777  1.00 38.51     0.156 C 
HETATM   26  C4  UAP C   4      34.075  60.713  23.283  1.00 38.14     0.077 C 
HETATM   27  C5  UAP C   4      34.085  61.798  22.394  1.00 38.51     0.228 C 
HETATM   28  O5  UAP C   4      34.463  63.163  22.733  1.00 37.46    -0.343 OA
BRANCH  24  29
HETATM   29  O2  UAP C   4      35.461  62.725  26.250  1.00 40.54    -0.244 OA
BRANCH  29  30
HETATM   30  S   UAP C   4      36.789  61.859  26.468  1.00 40.49     0.252 S 
HETATM   31  O1S UAP C   4      37.388  62.304  27.735  1.00 40.89    -0.572 OA
HETATM   32  O2S UAP C   4      37.670  62.138  25.324  1.00 37.88    -0.572 OA
HETATM   33  O3S UAP C   4      36.381  60.446  26.519  1.00 37.47    -0.572 OA
ENDBRANCH  29  30
ENDBRANCH  24  29
BRANCH  25  34
HETATM   34  O3  UAP C   4      33.586  60.512  25.689  1.00 38.58    -0.393 OA
ATOM     35  H3  UAP C   4      32.707  60.670  25.365  1.00  0.00     0.210 HD
ENDBRANCH  25  34
BRANCH  27  36
HETATM   36  C6  UAP C   4      33.663  61.671  20.972  1.00 37.96     0.203 C 
HETATM   37  O6A UAP C   4      34.000  62.570  20.175  1.00 40.05    -0.646 OA
HETATM   38  O6B UAP C   4      32.990  60.672  20.641  1.00 36.71    -0.646 OA
ENDBRANCH  27  36
ENDBRANCH  22  23
ENDBRANCH  11  22
BRANCH  12  39
HETATM   39  C6  SGN C   3      38.384  65.245  23.739  1.00 42.65     0.227 C 
BRANCH  39  40
HETATM   40  O6  SGN C   3      39.424  65.646  22.821  1.00 51.09    -0.254 OA
BRANCH  40  41
HETATM   41  S2  SGN C   3      40.386  64.487  22.292  1.00 54.80     0.251 S 
HETATM   42  O4S SGN C   3      39.545  63.310  22.007  1.00 54.99    -0.572 OA
HETATM   43  O5S SGN C   3      41.367  64.216  23.384  1.00 53.99    -0.572 OA
HETATM   44  O6S SGN C   3      41.033  64.992  21.088  1.00 55.43    -0.572 OA
ENDBRANCH  40  41
ENDBRANCH  39  40
ENDBRANCH  12  39
ENDBRANCH   7   8
ENDBRANCH   4   7
BRANCH   3  45
HETATM   45  O3  IDS C   2      39.363  70.073  22.294  1.00 39.65    -0.390 OA
ATOM     46  H3  IDS C   2      39.628  69.211  21.998  1.00  0.00     0.210 HD
ENDBRANCH   3  45
BRANCH   5  47
HETATM   47  C6  IDS C   2      34.804  71.059  23.980  1.00 36.10     0.206 C 
HETATM   48  O6A IDS C   2      33.680  70.937  23.444  1.00 32.44    -0.646 OA
HETATM   49  O6B IDS C   2      35.003  70.986  25.217  1.00 33.44    -0.646 OA
ENDBRANCH   5  47
BRANCH   2  50
HETATM   50  O2  IDS C   2      38.793  71.690  20.093  1.00 43.59    -0.244 OA
BRANCH  50  51
HETATM   51  S   IDS C   2      40.155  72.520  20.157  1.00 44.11     0.252 S 
HETATM   52  O1S IDS C   2      41.238  71.620  19.632  1.00 44.48    -0.572 OA
HETATM   53  O2S IDS C   2      40.373  72.888  21.572  1.00 44.29    -0.572 OA
HETATM   54  O3S IDS C   2      39.973  73.692  19.319  1.00 44.74    -0.572 OA
ENDBRANCH  50  51
ENDBRANCH   2  50
BRANCH   1  55
HETATM   55  O4  SGN C   1      36.254  73.324  20.748  1.00 44.73    -0.348 OA
BRANCH  55  56
HETATM   56  C4  SGN C   1      35.255  73.814  19.827  1.00 48.25     0.186 C 
HETATM   57  C3  SGN C   1      34.230  74.671  20.581  1.00 48.43     0.178 C 
HETATM   58  C2  SGN C   1      33.261  75.320  19.595  1.00 48.58     0.181 C 
HETATM   59  C1  SGN C   1      34.002  76.083  18.499  1.00 50.40     0.283 C 
HETATM   60  O5  SGN C   1      34.936  75.218  17.841  1.00 50.82    -0.349 OA
HETATM   61  C5  SGN C   1      35.927  74.668  18.739  1.00 51.58     0.181 C 
BRANCH  57  62
HETATM   62  O3  SGN C   1      33.501  73.863  21.492  1.00 46.09    -0.391 OA
ATOM     63  H3  SGN C   1      34.096  73.258  21.921  1.00  0.00     0.210 HD
ENDBRANCH  57  62
BRANCH  58  64
HETATM   64  N2  SGN C   1      32.359  76.217  20.287  1.00 48.56    -0.289 N 
ATOM     65  H2  SGN C   1      32.688  76.988  20.868  1.00  0.00     0.175 HD
BRANCH  64  66
HETATM   66  S1  SGN C   1      30.754  75.889  20.060  1.00 47.67     0.205 S 
HETATM   67  O1S SGN C   1      30.025  76.545  21.168  1.00 47.59    -0.578 OA
HETATM   68  O2S SGN C   1      30.644  74.428  20.104  1.00 48.55    -0.578 OA
HETATM   69  O3S SGN C   1      30.391  76.446  18.738  1.00 47.08    -0.578 OA
ENDBRANCH  64  66
ENDBRANCH  58  64
BRANCH  59  70
HETATM   70  O1  SGN C   1      34.698  77.147  19.053  1.00 51.36    -0.369 OA
ATOM     71  H1  SGN C   1      35.603  77.127  18.764  1.00  0.00     0.212 HD
ENDBRANCH  59  70
BRANCH  61  72
HETATM   72  C6  SGN C   1      36.888  73.876  17.889  1.00 55.48     0.227 C 
BRANCH  72  73
HETATM   73  O6  SGN C   1      36.242  73.498  16.654  1.00 61.59    -0.254 OA
BRANCH  73  74
HETATM   74  S2  SGN C   1      35.890  71.949  16.521  1.00 65.98     0.251 S 
HETATM   75  O4S SGN C   1      36.896  71.182  17.382  1.00 65.09    -0.572 OA
HETATM   76  O5S SGN C   1      36.019  71.616  15.114  1.00 65.58    -0.572 OA
HETATM   77  O6S SGN C   1      34.427  71.764  17.031  1.00 65.84    -0.572 OA
ENDBRANCH  73  74
ENDBRANCH  72  73
ENDBRANCH  61  72
ENDBRANCH  55  56
ENDBRANCH   1  55
TORSDOF 27
ENDMDL
MODEL 30
REMARK VINA RESULT:      -6.0      2.097      2.899
REMARK  27 active torsions:
REMARK  status: ('A' for Active; 'I' for Inactive)
REMARK    1  A    between atoms: C1_1  and  O1_2 
REMARK    2  A    between atoms: S1_5  and  N2_7 
REMARK    3  A    between atoms: C2_6  and  N2_7 
REMARK    4  A    between atoms: S2_10  and  O6_22 
REMARK    5  A    between atoms: C3_11  and  O3_12 
REMARK    6  A    between atoms: C4_15  and  O4_16 
REMARK    7  A    between atoms: O4_16  and  C1_24 
REMARK    8  A    between atoms: C5_18  and  C6_21 
REMARK    9  A    between atoms: C6_21  and  O6_22 
REMARK   10  A    between atoms: C2_26  and  O2_27 
REMARK   11  A    between atoms: O2_27  and  S_40 
REMARK   12  A    between atoms: C3_29  and  O3_30 
REMARK   13  A    between atoms: C4_33  and  O4_34 
REMARK   14  A    between atoms: O4_34  and  C1_41 
REMARK   15  A    between atoms: C5_35  and  C6_37 
REMARK   16  A    between atoms: S1_43  and  N2_45 
REMARK   17  A    between atoms: C2_44  and  N2_45 
REMARK   18  A    between atoms: S2_48  and  O6_60 
REMARK   19  A    between atoms: C3_49  and  O3_50 
REMARK   20  A    between atoms: C4_53  and  O4_54 
REMARK   21  A    between atoms: O4_54  and  C1_62 
REMARK   22  A    between atoms: C5_56  and  C6_59 
REMARK   23  A    between atoms: C6_59  and  O6_60 
REMARK   24  A    between atoms: C2_64  and  O2_65 
REMARK   25  A    between atoms: O2_65  and  S_77 
REMARK   26  A    between atoms: C3_67  and  O3_68 
REMARK   27  A    between atoms: C5_72  and  C6_74 
ROOT
HETATM    1  C1  IDS C   2      29.261  83.211  12.788  1.00 40.81     0.294 C 
HETATM    2  C2  IDS C   2      30.058  82.378  11.781  1.00 40.20     0.231 C 
HETATM    3  C3  IDS C   2      30.096  80.909  12.192  1.00 39.01     0.185 C 
HETATM    4  C4  IDS C   2      30.758  80.739  13.574  1.00 37.65     0.195 C 
HETATM    5  C5  IDS C   2      30.707  82.065  14.343  1.00 35.99     0.257 C 
HETATM    6  O5  IDS C   2      29.424  82.703  14.130  1.00 39.00    -0.340 OA
ENDROOT
BRANCH   4   7
HETATM    7  O4  IDS C   2      30.073  79.704  14.323  1.00 35.98    -0.348 OA
BRANCH   7   8
HETATM    8  C1  SGN C   3      29.598  78.615  13.578  1.00 35.40     0.287 C 
HETATM    9  C2  SGN C   3      28.797  77.663  14.483  1.00 33.71     0.182 C 
HETATM   10  C3  SGN C   3      29.700  76.864  15.431  1.00 35.79     0.178 C 
HETATM   11  C4  SGN C   3      30.911  76.260  14.700  1.00 36.62     0.186 C 
HETATM   12  C5  SGN C   3      31.592  77.325  13.848  1.00 39.32     0.181 C 
HETATM   13  O5  SGN C   3      30.645  77.909  12.936  1.00 37.58    -0.349 OA
BRANCH   9  14
HETATM   14  N2  SGN C   3      27.854  78.425  15.271  1.00 29.28    -0.289 N 
ATOM     15  H2  SGN C   3      28.168  79.149  15.916  1.00  0.00     0.175 HD
BRANCH  14  16
HETATM   16  S1  SGN C   3      26.249  78.081  15.087  1.00 27.84     0.205 S 
HETATM   17  O1S SGN C   3      25.565  79.277  15.542  1.00 27.65    -0.578 OA
HETATM   18  O2S SGN C   3      25.997  76.902  15.968  1.00 27.72    -0.578 OA
HETATM   19  O3S SGN C   3      25.966  77.776  13.649  1.00 28.50    -0.578 OA
ENDBRANCH  14  16
ENDBRANCH   9  14
BRANCH  10  20
HETATM   20  O3  SGN C   3      28.939  75.831  16.053  1.00 34.89    -0.391 OA
ATOM     21  H3  SGN C   3      28.414  75.386  15.398  1.00  0.00     0.210 HD
ENDBRANCH  10  20
BRANCH  11  22
HETATM   22  O4  SGN C   3      31.856  75.777  15.670  1.00 37.13    -0.348 OA
BRANCH  22  23
HETATM   23  C1  UAP C   4      32.033  74.403  15.693  1.00 39.64     0.294 C 
HETATM   24  C2  UAP C   4      31.621  73.845  17.044  1.00 38.70     0.228 C 
HETATM   25  C3  UAP C   4      31.907  72.347  17.102  1.00 38.51     0.156 C 
HETATM   26  C4  UAP C   4      31.527  71.564  15.761  1.00 38.14     0.077 C 
HETATM   27  C5  UAP C   4      31.205  72.386  14.672  1.00 38.51     0.228 C 
HETATM   28  O5  UAP C   4      31.201  73.842  14.686  1.00 37.46    -0.343 OA
BRANCH  24  29
HETATM   29  O2  UAP C   4      32.402  74.479  18.108  1.00 40.54    -0.244 OA
BRANCH  29  30
HETATM   30  S   UAP C   4      31.695  75.390  19.219  1.00 40.49     0.252 S 
HETATM   31  O1S UAP C   4      30.346  75.700  18.723  1.00 40.89    -0.572 OA
HETATM   32  O2S UAP C   4      32.514  76.603  19.356  1.00 37.88    -0.572 OA
HETATM   33  O3S UAP C   4      31.658  74.605  20.463  1.00 37.47    -0.572 OA
ENDBRANCH  29  30
ENDBRANCH  24  29
BRANCH  25  34
HETATM   34  O3  UAP C   4      31.196  71.784  18.192  1.00 38.58    -0.393 OA
ATOM     35  H3  UAP C   4      31.810  71.337  18.763  1.00  0.00     0.210 HD
ENDBRANCH  25  34
BRANCH  27  36
HETATM   36  C6  UAP C   4      30.786  71.838  13.352  1.00 37.96     0.203 C 
HETATM   37  O6A UAP C   4      29.651  72.131  12.927  1.00 40.05    -0.646 OA
HETATM   38  O6B UAP C   4      31.590  71.110  12.732  1.00 36.71    -0.646 OA
ENDBRANCH  27  36
ENDBRANCH  22  23
ENDBRANCH  11  22
BRANCH  12  39
HETATM   39  C6  SGN C   3      32.741  76.814  13.025  1.00 42.65     0.227 C 
BRANCH  39  40
HETATM   40  O6  SGN C   3      32.168  75.862  12.102  1.00 51.09    -0.254 OA
BRANCH  40  41
HETATM   41  S2  SGN C   3      32.363  76.176  10.549  1.00 54.80     0.251 S 
HETATM   42  O4S SGN C   3      33.513  75.383  10.079  1.00 54.99    -0.572 OA
HETATM   43  O5S SGN C   3      32.619  77.643  10.440  1.00 53.99    -0.572 OA
HETATM   44  O6S SGN C   3      31.128  75.785   9.881  1.00 55.43    -0.572 OA
ENDBRANCH  40  41
ENDBRANCH  39  40
ENDBRANCH  12  39
ENDBRANCH   7   8
ENDBRANCH   4   7
BRANCH   3  45
HETATM   45  O3  IDS C   2      30.813  80.163  11.218  1.00 39.65    -0.390 OA
ATOM     46  H3  IDS C   2      31.103  79.342  11.599  1.00  0.00     0.210 HD
ENDBRANCH   3  45
BRANCH   5  47
HETATM   47  C6  IDS C   2      30.925  81.947  15.845  1.00 36.10     0.206 C 
HETATM   48  O6A IDS C   2      31.919  82.528  16.335  1.00 32.44    -0.646 OA
HETATM   49  O6B IDS C   2      30.096  81.289  16.518  1.00 33.44    -0.646 OA
ENDBRANCH   5  47
BRANCH   2  50
HETATM   50  O2  IDS C   2      29.434  82.468  10.467  1.00 43.59    -0.244 OA
BRANCH  50  51
HETATM   51  S   IDS C   2      30.271  83.040   9.234  1.00 44.11     0.252 S 
HETATM   52  O1S IDS C   2      29.281  83.361   8.149  1.00 44.48    -0.572 OA
HETATM   53  O2S IDS C   2      31.221  81.983   8.827  1.00 44.29    -0.572 OA
HETATM   54  O3S IDS C   2      30.958  84.229   9.706  1.00 44.74    -0.572 OA
ENDBRANCH  50  51
ENDBRANCH   2  50
BRANCH   1  55
HETATM   55  O4  SGN C   1      29.705  84.525  12.756  1.00 44.73    -0.348 OA
BRANCH  55  56
HETATM   56  C4  SGN C   1      28.848  85.537  13.329  1.00 48.25     0.186 C 
HETATM   57  C3  SGN C   1      29.464  86.063  14.630  1.00 48.43     0.178 C 
HETATM   58  C2  SGN C   1      28.645  87.239  15.161  1.00 48.58     0.181 C 
HETATM   59  C1  SGN C   1      28.458  88.319  14.096  1.00 50.40     0.283 C 
HETATM   60  O5  SGN C   1      27.877  87.751  12.916  1.00 50.82    -0.349 OA
HETATM   61  C5  SGN C   1      28.685  86.701  12.337  1.00 51.58     0.181 C 
BRANCH  57  62
HETATM   62  O3  SGN C   1      29.490  85.033  15.605  1.00 46.09    -0.391 OA
ATOM     63  H3  SGN C   1      28.711  85.093  16.146  1.00  0.00     0.210 HD
ENDBRANCH  57  62
BRANCH  58  64
HETATM   64  N2  SGN C   1      29.281  87.813  16.329  1.00 48.56    -0.289 N 
ATOM     65  H2  SGN C   1      30.197  88.261  16.293  1.00  0.00     0.175 HD
BRANCH  64  66
HETATM   66  S1  SGN C   1      28.403  87.683  17.724  1.00 47.67     0.205 S 
HETATM   67  O1S SGN C   1      28.957  88.676  18.670  1.00 47.59    -0.578 OA
HETATM   68  O2S SGN C   1      28.600  86.304  18.182  1.00 48.55    -0.578 OA
HETATM   69  O3S SGN C   1      26.996  87.966  17.367  1.00 47.08    -0.578 OA
ENDBRANCH  64  66
ENDBRANCH  58  64
BRANCH  59  70
HETATM   70  O1  SGN C   1      29.685  88.872  13.765  1.00 51.36    -0.369 OA
ATOM     71  H1  SGN C   1      29.946  89.501  14.427  1.00  0.00     0.212 HD
ENDBRANCH  59  70
BRANCH  61  72
HETATM   72  C6  SGN C   1      28.001  86.285  11.059  1.00 55.48     0.227 C 
BRANCH  72  73
HETATM   73  O6  SGN C   1      26.601  86.630  11.126  1.00 61.59    -0.254 OA
BRANCH  73  74
HETATM   74  S2  SGN C   1      25.610  85.399  11.334  1.00 65.98     0.251 S 
HETATM   75  O4S SGN C   1      25.112  85.460  12.780  1.00 65.09    -0.572 OA
HETATM   76  O5S SGN C   1      26.383  84.198  11.079  1.00 65.58    -0.572 OA
HETATM   77  O6S SGN C   1      24.444  85.569  10.309  1.00 65.84    -0.572 OA
ENDBRANCH  73  74
ENDBRANCH  72  73
ENDBRANCH  61  72
ENDBRANCH  55  56
ENDBRANCH   1  55
TORSDOF 27
ENDMDL
MODEL 31
REMARK VINA RESULT:      -6.0      3.986      8.455
REMARK  27 active torsions:
REMARK  status: ('A' for Active; 'I' for Inactive)
REMARK    1  A    between atoms: C1_1  and  O1_2 
REMARK    2  A    between atoms: S1_5  and  N2_7 
REMARK    3  A    between atoms: C2_6  and  N2_7 
REMARK    4  A    between atoms: S2_10  and  O6_22 
REMARK    5  A    between atoms: C3_11  and  O3_12 
REMARK    6  A    between atoms: C4_15  and  O4_16 
REMARK    7  A    between atoms: O4_16  and  C1_24 
REMARK    8  A    between atoms: C5_18  and  C6_21 
REMARK    9  A    between atoms: C6_21  and  O6_22 
REMARK   10  A    between atoms: C2_26  and  O2_27 
REMARK   11  A    between atoms: O2_27  and  S_40 
REMARK   12  A    between atoms: C3_29  and  O3_30 
REMARK   13  A    between atoms: C4_33  and  O4_34 
REMARK   14  A    between atoms: O4_34  and  C1_41 
REMARK   15  A    between atoms: C5_35  and  C6_37 
REMARK   16  A    between atoms: S1_43  and  N2_45 
REMARK   17  A    between atoms: C2_44  and  N2_45 
REMARK   18  A    between atoms: S2_48  and  O6_60 
REMARK   19  A    between atoms: C3_49  and  O3_50 
REMARK   20  A    between atoms: C4_53  and  O4_54 
REMARK   21  A    between atoms: O4_54  and  C1_62 
REMARK   22  A    between atoms: C5_56  and  C6_59 
REMARK   23  A    between atoms: C6_59  and  O6_60 
REMARK   24  A    between atoms: C2_64  and  O2_65 
REMARK   25  A    between atoms: O2_65  and  S_77 
REMARK   26  A    between atoms: C3_67  and  O3_68 
REMARK   27  A    between atoms: C5_72  and  C6_74 
ROOT
HETATM    1  C1  IDS C   2      28.296  87.145  14.018  1.00 40.81     0.294 C 
HETATM    2  C2  IDS C   2      28.216  86.499  15.404  1.00 40.20     0.231 C 
HETATM    3  C3  IDS C   2      28.602  85.024  15.344  1.00 39.01     0.185 C 
HETATM    4  C4  IDS C   2      27.662  84.243  14.404  1.00 37.65     0.195 C 
HETATM    5  C5  IDS C   2      26.978  85.211  13.430  1.00 35.99     0.257 C 
HETATM    6  O5  IDS C   2      27.930  86.206  12.983  1.00 39.00    -0.340 OA
ENDROOT
BRANCH   4   7
HETATM    7  O4  IDS C   2      28.418  83.249  13.667  1.00 35.98    -0.348 OA
BRANCH   7   8
HETATM    8  C1  SGN C   3      29.747  83.060  14.072  1.00 35.40     0.287 C 
HETATM    9  C2  SGN C   3      30.693  83.208  12.868  1.00 33.71     0.182 C 
HETATM   10  C3  SGN C   3      30.614  82.010  11.914  1.00 35.79     0.178 C 
HETATM   11  C4  SGN C   3      30.666  80.670  12.669  1.00 36.62     0.186 C 
HETATM   12  C5  SGN C   3      29.677  80.684  13.828  1.00 39.32     0.181 C 
HETATM   13  O5  SGN C   3      29.944  81.802  14.693  1.00 37.58    -0.349 OA
BRANCH   9  14
HETATM   14  N2  SGN C   3      30.359  84.409  12.135  1.00 29.28    -0.289 N 
ATOM     15  H2  SGN C   3      29.453  84.513  11.678  1.00  0.00     0.175 HD
BRANCH  14  16
HETATM   16  S1  SGN C   3      31.495  85.605  12.065  1.00 27.84     0.205 S 
HETATM   17  O1S SGN C   3      30.952  86.569  11.126  1.00 27.65    -0.578 OA
HETATM   18  O2S SGN C   3      32.733  84.941  11.558  1.00 27.72    -0.578 OA
HETATM   19  O3S SGN C   3      31.691  86.187  13.430  1.00 28.50    -0.578 OA
ENDBRANCH  14  16
ENDBRANCH   9  14
BRANCH  10  20
HETATM   20  O3  SGN C   3      31.681  82.082  10.972  1.00 34.89    -0.391 OA
ATOM     21  H3  SGN C   3      32.047  82.959  10.973  1.00  0.00     0.210 HD
ENDBRANCH  10  20
BRANCH  11  22
HETATM   22  O4  SGN C   3      30.303  79.607  11.770  1.00 37.13    -0.348 OA
BRANCH  22  23
HETATM   23  C1  UAP C   4      31.302  78.682  11.512  1.00 39.64     0.294 C 
HETATM   24  C2  UAP C   4      31.347  78.361  10.029  1.00 38.70     0.228 C 
HETATM   25  C3  UAP C   4      32.380  77.271   9.759  1.00 38.51     0.156 C 
HETATM   26  C4  UAP C   4      33.739  77.450  10.582  1.00 38.14     0.077 C 
HETATM   27  C5  UAP C   4      33.696  78.434  11.579  1.00 38.51     0.228 C 
HETATM   28  O5  UAP C   4      32.541  79.262  11.900  1.00 37.46    -0.343 OA
BRANCH  24  29
HETATM   29  O2  UAP C   4      30.048  77.850   9.585  1.00 40.54    -0.244 OA
BRANCH  29  30
HETATM   30  S   UAP C   4      29.544  78.071   8.082  1.00 40.49     0.252 S 
HETATM   31  O1S UAP C   4      29.754  76.802   7.369  1.00 40.89    -0.572 OA
HETATM   32  O2S UAP C   4      30.362  79.153   7.515  1.00 37.88    -0.572 OA
HETATM   33  O3S UAP C   4      28.120  78.433   8.152  1.00 37.47    -0.572 OA
ENDBRANCH  29  30
ENDBRANCH  24  29
BRANCH  25  34
HETATM   34  O3  UAP C   4      32.672  77.246   8.371  1.00 38.58    -0.393 OA
ATOM     35  H3  UAP C   4      32.087  76.632   7.943  1.00  0.00     0.210 HD
ENDBRANCH  25  34
BRANCH  27  36
HETATM   36  C6  UAP C   4      34.876  78.772  12.422  1.00 37.96     0.203 C 
HETATM   37  O6A UAP C   4      35.935  78.142  12.232  1.00 40.05    -0.646 OA
HETATM   38  O6B UAP C   4      34.751  79.670  13.283  1.00 36.71    -0.646 OA
ENDBRANCH  27  36
ENDBRANCH  22  23
ENDBRANCH  11  22
BRANCH  12  39
HETATM   39  C6  SGN C   3      29.711  79.447  14.682  1.00 42.65     0.227 C 
BRANCH  39  40
HETATM   40  O6  SGN C   3      31.099  79.248  15.027  1.00 51.09    -0.254 OA
BRANCH  40  41
HETATM   41  S2  SGN C   3      31.496  77.794  15.553  1.00 54.80     0.251 S 
HETATM   42  O4S SGN C   3      31.736  77.900  17.004  1.00 54.99    -0.572 OA
HETATM   43  O5S SGN C   3      32.731  77.396  14.814  1.00 53.99    -0.572 OA
HETATM   44  O6S SGN C   3      30.373  76.915  15.254  1.00 55.43    -0.572 OA
ENDBRANCH  40  41
ENDBRANCH  39  40
ENDBRANCH  12  39
ENDBRANCH   7   8
ENDBRANCH   4   7
BRANCH   3  45
HETATM   45  O3  IDS C   2      28.550  84.466  16.650  1.00 39.65    -0.390 OA
ATOM     46  H3  IDS C   2      27.645  84.300  16.887  1.00  0.00     0.210 HD
ENDBRANCH   3  45
BRANCH   5  47
HETATM   47  C6  IDS C   2      26.370  84.559  12.195  1.00 36.10     0.206 C 
HETATM   48  O6A IDS C   2      25.126  84.434  12.158  1.00 32.44    -0.646 OA
HETATM   49  O6B IDS C   2      27.140  84.195  11.274  1.00 33.44    -0.646 OA
ENDBRANCH   5  47
BRANCH   2  50
HETATM   50  O2  IDS C   2      29.132  87.174  16.314  1.00 43.59    -0.244 OA
BRANCH  50  51
HETATM   51  S   IDS C   2      28.595  87.713  17.717  1.00 44.11     0.252 S 
HETATM   52  O1S IDS C   2      27.111  87.901  17.571  1.00 44.48    -0.572 OA
HETATM   53  O2S IDS C   2      29.294  88.987  17.988  1.00 44.29    -0.572 OA
HETATM   54  O3S IDS C   2      28.916  86.702  18.708  1.00 44.74    -0.572 OA
ENDBRANCH  50  51
ENDBRANCH   2  50
BRANCH   1  55
HETATM   55  O4  SGN C   1      27.428  88.226  13.961  1.00 44.73    -0.348 OA
BRANCH  55  56
HETATM   56  C4  SGN C   1      27.108  88.761  12.658  1.00 48.25     0.186 C 
HETATM   57  C3  SGN C   1      25.589  88.912  12.517  1.00 48.43     0.178 C 
HETATM   58  C2  SGN C   1      25.251  89.620  11.206  1.00 48.58     0.181 C 
HETATM   59  C1  SGN C   1      26.009  90.939  11.068  1.00 50.40     0.283 C 
HETATM   60  O5  SGN C   1      27.417  90.716  11.208  1.00 50.82    -0.349 OA
HETATM   61  C5  SGN C   1      27.773  90.137  12.485  1.00 51.58     0.181 C 
BRANCH  57  62
HETATM   62  O3  SGN C   1      24.972  87.634  12.532  1.00 46.09    -0.391 OA
ATOM     63  H3  SGN C   1      24.158  87.684  13.021  1.00  0.00     0.210 HD
ENDBRANCH  57  62
BRANCH  58  64
HETATM   64  N2  SGN C   1      23.826  89.865  11.116  1.00 48.56    -0.289 N 
ATOM     65  H2  SGN C   1      23.314  90.402  11.816  1.00  0.00     0.175 HD
BRANCH  64  66
HETATM   66  S1  SGN C   1      23.097  89.205   9.785  1.00 47.67     0.205 S 
HETATM   67  O1S SGN C   1      21.905  88.476  10.271  1.00 47.59    -0.578 OA
HETATM   68  O2S SGN C   1      24.099  88.311   9.195  1.00 48.55    -0.578 OA
HETATM   69  O3S SGN C   1      22.746  90.331   8.893  1.00 47.08    -0.578 OA
ENDBRANCH  64  66
ENDBRANCH  58  64
BRANCH  59  70
HETATM   70  O1  SGN C   1      25.600  91.823  12.055  1.00 51.36    -0.369 OA
ATOM     71  H1  SGN C   1      26.341  92.071  12.595  1.00  0.00     0.212 HD
ENDBRANCH  59  70
BRANCH  61  72
HETATM   72  C6  SGN C   1      29.279  90.063  12.521  1.00 55.48     0.227 C 
BRANCH  72  73
HETATM   73  O6  SGN C   1      29.721  89.862  13.880  1.00 61.59    -0.254 OA
BRANCH  73  74
HETATM   74  S2  SGN C   1      30.104  91.191  14.672  1.00 65.98     0.251 S 
HETATM   75  O4S SGN C   1      31.327  90.867  15.533  1.00 65.09    -0.572 OA
HETATM   76  O5S SGN C   1      28.950  91.538  15.480  1.00 65.58    -0.572 OA
HETATM   77  O6S SGN C   1      30.418  92.287  13.605  1.00 65.84    -0.572 OA
ENDBRANCH  73  74
ENDBRANCH  72  73
ENDBRANCH  61  72
ENDBRANCH  55  56
ENDBRANCH   1  55
TORSDOF 27
ENDMDL
MODEL 32
REMARK VINA RESULT:      -6.0      6.035     11.570
REMARK  27 active torsions:
REMARK  status: ('A' for Active; 'I' for Inactive)
REMARK    1  A    between atoms: C1_1  and  O1_2 
REMARK    2  A    between atoms: S1_5  and  N2_7 
REMARK    3  A    between atoms: C2_6  and  N2_7 
REMARK    4  A    between atoms: S2_10  and  O6_22 
REMARK    5  A    between atoms: C3_11  and  O3_12 
REMARK    6  A    between atoms: C4_15  and  O4_16 
REMARK    7  A    between atoms: O4_16  and  C1_24 
REMARK    8  A    between atoms: C5_18  and  C6_21 
REMARK    9  A    between atoms: C6_21  and  O6_22 
REMARK   10  A    between atoms: C2_26  and  O2_27 
REMARK   11  A    between atoms: O2_27  and  S_40 
REMARK   12  A    between atoms: C3_29  and  O3_30 
REMARK   13  A    between atoms: C4_33  and  O4_34 
REMARK   14  A    between atoms: O4_34  and  C1_41 
REMARK   15  A    between atoms: C5_35  and  C6_37 
REMARK   16  A    between atoms: S1_43  and  N2_45 
REMARK   17  A    between atoms: C2_44  and  N2_45 
REMARK   18  A    between atoms: S2_48  and  O6_60 
REMARK   19  A    between atoms: C3_49  and  O3_50 
REMARK   20  A    between atoms: C4_53  and  O4_54 
REMARK   21  A    between atoms: O4_54  and  C1_62 
REMARK   22  A    between atoms: C5_56  and  C6_59 
REMARK   23  A    between atoms: C6_59  and  O6_60 
REMARK   24  A    between atoms: C2_64  and  O2_65 
REMARK   25  A    between atoms: O2_65  and  S_77 
REMARK   26  A    between atoms: C3_67  and  O3_68 
REMARK   27  A    between atoms: C5_72  and  C6_74 
ROOT
HETATM    1  C1  IDS C   2      31.883  73.840  17.719  1.00 40.81     0.294 C 
HETATM    2  C2  IDS C   2      30.929  73.484  18.861  1.00 40.20     0.231 C 
HETATM    3  C3  IDS C   2      31.640  72.662  19.933  1.00 39.01     0.185 C 
HETATM    4  C4  IDS C   2      32.188  71.346  19.347  1.00 37.65     0.195 C 
HETATM    5  C5  IDS C   2      32.330  71.472  17.825  1.00 35.99     0.257 C 
HETATM    6  O5  IDS C   2      32.842  72.784  17.491  1.00 39.00    -0.340 OA
ENDROOT
BRANCH   4   7
HETATM    7  O4  IDS C   2      33.474  71.041  19.943  1.00 35.98    -0.348 OA
BRANCH   7   8
HETATM    8  C1  SGN C   3      34.056  72.062  20.709  1.00 35.40     0.287 C 
HETATM    9  C2  SGN C   3      35.488  72.341  20.218  1.00 33.71     0.182 C 
HETATM   10  C3  SGN C   3      36.466  71.228  20.612  1.00 35.79     0.178 C 
HETATM   11  C4  SGN C   3      36.312  70.823  22.088  1.00 36.62     0.186 C 
HETATM   12  C5  SGN C   3      34.844  70.585  22.415  1.00 39.32     0.181 C 
HETATM   13  O5  SGN C   3      34.069  71.753  22.091  1.00 37.58    -0.349 OA
BRANCH   9  14
HETATM   14  N2  SGN C   3      35.487  72.473  18.778  1.00 29.28    -0.289 N 
ATOM     15  H2  SGN C   3      35.145  71.721  18.179  1.00  0.00     0.175 HD
BRANCH  14  16
HETATM   16  S1  SGN C   3      36.061  73.883  18.137  1.00 27.84     0.205 S 
HETATM   17  O1S SGN C   3      36.004  73.681  16.701  1.00 27.65    -0.578 OA
HETATM   18  O2S SGN C   3      37.459  74.005  18.647  1.00 27.72    -0.578 OA
HETATM   19  O3S SGN C   3      35.199  75.021  18.587  1.00 28.50    -0.578 OA
ENDBRANCH  14  16
ENDBRANCH   9  14
BRANCH  10  20
HETATM   20  O3  SGN C   3      37.801  71.658  20.359  1.00 34.89    -0.391 OA
ATOM     21  H3  SGN C   3      38.411  71.030  20.729  1.00  0.00     0.210 HD
ENDBRANCH  10  20
BRANCH  11  22
HETATM   22  O4  SGN C   3      37.037  69.603  22.321  1.00 37.13    -0.348 OA
BRANCH  22  23
HETATM   23  C1  UAP C   4      38.220  69.741  23.030  1.00 39.64     0.294 C 
HETATM   24  C2  UAP C   4      39.255  68.756  22.516  1.00 38.70     0.228 C 
HETATM   25  C3  UAP C   4      40.523  68.842  23.361  1.00 38.51     0.156 C 
HETATM   26  C4  UAP C   4      40.953  70.336  23.733  1.00 38.14     0.077 C 
HETATM   27  C5  UAP C   4      39.997  71.315  23.428  1.00 38.51     0.228 C 
HETATM   28  O5  UAP C   4      38.695  71.065  22.825  1.00 37.46    -0.343 OA
BRANCH  24  29
HETATM   29  O2  UAP C   4      38.747  67.388  22.630  1.00 40.54    -0.244 OA
BRANCH  29  30
HETATM   30  S   UAP C   4      38.804  66.380  21.388  1.00 40.49     0.252 S 
HETATM   31  O1S UAP C   4      37.787  65.346  21.628  1.00 40.89    -0.572 OA
HETATM   32  O2S UAP C   4      40.160  65.813  21.363  1.00 37.88    -0.572 OA
HETATM   33  O3S UAP C   4      38.513  67.168  20.179  1.00 37.47    -0.572 OA
ENDBRANCH  29  30
ENDBRANCH  24  29
BRANCH  25  34
HETATM   34  O3  UAP C   4      41.585  68.208  22.664  1.00 38.58    -0.393 OA
ATOM     35  H3  UAP C   4      42.406  68.422  23.091  1.00  0.00     0.210 HD
ENDBRANCH  25  34
BRANCH  27  36
HETATM   36  C6  UAP C   4      40.234  72.766  23.665  1.00 37.96     0.203 C 
HETATM   37  O6A UAP C   4      41.412  73.169  23.720  1.00 40.05    -0.646 OA
HETATM   38  O6B UAP C   4      39.241  73.513  23.800  1.00 36.71    -0.646 OA
ENDBRANCH  27  36
ENDBRANCH  22  23
ENDBRANCH  11  22
BRANCH  12  39
HETATM   39  C6  SGN C   3      34.577  70.265  23.860  1.00 42.65     0.227 C 
BRANCH  39  40
HETATM   40  O6  SGN C   3      34.145  68.887  23.881  1.00 51.09    -0.254 OA
BRANCH  40  41
HETATM   41  S2  SGN C   3      34.936  67.912  24.865  1.00 54.80     0.251 S 
HETATM   42  O4S SGN C   3      35.756  68.754  25.755  1.00 54.99    -0.572 OA
HETATM   43  O5S SGN C   3      35.779  67.029  24.005  1.00 53.99    -0.572 OA
HETATM   44  O6S SGN C   3      33.934  67.157  25.608  1.00 55.43    -0.572 OA
ENDBRANCH  40  41
ENDBRANCH  39  40
ENDBRANCH  12  39
ENDBRANCH   7   8
ENDBRANCH   4   7
BRANCH   3  45
HETATM   45  O3  IDS C   2      30.734  72.380  20.991  1.00 39.65    -0.390 OA
ATOM     46  H3  IDS C   2      30.952  72.914  21.746  1.00  0.00     0.210 HD
ENDBRANCH   3  45
BRANCH   5  47
HETATM   47  C6  IDS C   2      33.239  70.437  17.176  1.00 36.10     0.206 C 
HETATM   48  O6A IDS C   2      34.278  70.849  16.614  1.00 32.44    -0.646 OA
HETATM   49  O6B IDS C   2      32.914  69.228  17.250  1.00 33.44    -0.646 OA
ENDBRANCH   5  47
BRANCH   2  50
HETATM   50  O2  IDS C   2      30.426  74.704  19.480  1.00 43.59    -0.244 OA
BRANCH  50  51
HETATM   51  S   IDS C   2      31.457  75.774  20.063  1.00 44.11     0.252 S 
HETATM   52  O1S IDS C   2      30.693  76.626  21.038  1.00 44.48    -0.572 OA
HETATM   53  O2S IDS C   2      31.964  76.558  18.917  1.00 44.29    -0.572 OA
HETATM   54  O3S IDS C   2      32.517  75.027  20.715  1.00 44.74    -0.572 OA
ENDBRANCH  50  51
ENDBRANCH   2  50
BRANCH   1  55
HETATM   55  O4  SGN C   1      31.156  74.036  16.553  1.00 44.73    -0.348 OA
BRANCH  55  56
HETATM   56  C4  SGN C   1      31.778  74.800  15.496  1.00 48.25     0.186 C 
HETATM   57  C3  SGN C   1      32.111  73.878  14.316  1.00 48.43     0.178 C 
HETATM   58  C2  SGN C   1      32.625  74.701  13.136  1.00 48.58     0.181 C 
HETATM   59  C1  SGN C   1      31.659  75.827  12.774  1.00 50.40     0.283 C 
HETATM   60  O5  SGN C   1      31.399  76.644  13.923  1.00 50.82    -0.349 OA
HETATM   61  C5  SGN C   1      30.818  75.904  15.022  1.00 51.58     0.181 C 
BRANCH  57  62
HETATM   62  O3  SGN C   1      33.103  72.940  14.701  1.00 46.09    -0.391 OA
ATOM     63  H3  SGN C   1      33.024  72.160  14.163  1.00  0.00     0.210 HD
ENDBRANCH  57  62
BRANCH  58  64
HETATM   64  N2  SGN C   1      32.838  73.852  11.982  1.00 48.56    -0.289 N 
ATOM     65  H2  SGN C   1      32.082  73.339  11.528  1.00  0.00     0.175 HD
BRANCH  64  66
HETATM   66  S1  SGN C   1      34.406  73.782  11.459  1.00 47.67     0.205 S 
HETATM   67  O1S SGN C   1      35.205  73.245  12.583  1.00 47.59    -0.578 OA
HETATM   68  O2S SGN C   1      34.768  75.163  11.124  1.00 48.55    -0.578 OA
HETATM   69  O3S SGN C   1      34.419  72.890  10.280  1.00 47.08    -0.578 OA
ENDBRANCH  64  66
ENDBRANCH  58  64
BRANCH  59  70
HETATM   70  O1  SGN C   1      30.458  75.294  12.329  1.00 51.36    -0.369 OA
ATOM     71  H1  SGN C   1      29.841  75.241  13.049  1.00  0.00     0.212 HD
ENDBRANCH  59  70
BRANCH  61  72
HETATM   72  C6  SGN C   1      30.509  76.910  16.102  1.00 55.48     0.227 C 
BRANCH  72  73
HETATM   73  O6  SGN C   1      29.179  77.437  15.905  1.00 61.59    -0.254 OA
BRANCH  73  74
HETATM   74  S2  SGN C   1      28.236  77.390  17.189  1.00 65.98     0.251 S 
HETATM   75  O4S SGN C   1      28.920  78.214  18.282  1.00 65.09    -0.572 OA
HETATM   76  O5S SGN C   1      28.114  75.993  17.562  1.00 65.58    -0.572 OA
HETATM   77  O6S SGN C   1      26.861  78.002  16.772  1.00 65.84    -0.572 OA
ENDBRANCH  73  74
ENDBRANCH  72  73
ENDBRANCH  61  72
ENDBRANCH  55  56
ENDBRANCH   1  55
TORSDOF 27
ENDMDL
MODEL 33
REMARK VINA RESULT:      -5.9      4.260     12.946
REMARK  27 active torsions:
REMARK  status: ('A' for Active; 'I' for Inactive)
REMARK    1  A    between atoms: C1_1  and  O1_2 
REMARK    2  A    between atoms: S1_5  and  N2_7 
REMARK    3  A    between atoms: C2_6  and  N2_7 
REMARK    4  A    between atoms: S2_10  and  O6_22 
REMARK    5  A    between atoms: C3_11  and  O3_12 
REMARK    6  A    between atoms: C4_15  and  O4_16 
REMARK    7  A    between atoms: O4_16  and  C1_24 
REMARK    8  A    between atoms: C5_18  and  C6_21 
REMARK    9  A    between atoms: C6_21  and  O6_22 
REMARK   10  A    between atoms: C2_26  and  O2_27 
REMARK   11  A    between atoms: O2_27  and  S_40 
REMARK   12  A    between atoms: C3_29  and  O3_30 
REMARK   13  A    between atoms: C4_33  and  O4_34 
REMARK   14  A    between atoms: O4_34  and  C1_41 
REMARK   15  A    between atoms: C5_35  and  C6_37 
REMARK   16  A    between atoms: S1_43  and  N2_45 
REMARK   17  A    between atoms: C2_44  and  N2_45 
REMARK   18  A    between atoms: S2_48  and  O6_60 
REMARK   19  A    between atoms: C3_49  and  O3_50 
REMARK   20  A    between atoms: C4_53  and  O4_54 
REMARK   21  A    between atoms: O4_54  and  C1_62 
REMARK   22  A    between atoms: C5_56  and  C6_59 
REMARK   23  A    between atoms: C6_59  and  O6_60 
REMARK   24  A    between atoms: C2_64  and  O2_65 
REMARK   25  A    between atoms: O2_65  and  S_77 
REMARK   26  A    between atoms: C3_67  and  O3_68 
REMARK   27  A    between atoms: C5_72  and  C6_74 
ROOT
HETATM    1  C1  IDS C   2      33.471  70.929  18.329  1.00 40.81     0.294 C 
HETATM    2  C2  IDS C   2      33.696  72.212  19.133  1.00 40.20     0.231 C 
HETATM    3  C3  IDS C   2      33.239  73.438  18.349  1.00 39.01     0.185 C 
HETATM    4  C4  IDS C   2      34.017  73.569  17.024  1.00 37.65     0.195 C 
HETATM    5  C5  IDS C   2      34.616  72.211  16.635  1.00 35.99     0.257 C 
HETATM    6  O5  IDS C   2      33.661  71.160  16.915  1.00 39.00    -0.340 OA
ENDROOT
BRANCH   4   7
HETATM    7  O4  IDS C   2      33.131  74.039  15.978  1.00 35.98    -0.348 OA
BRANCH   7   8
HETATM    8  C1  SGN C   3      31.776  73.710  16.125  1.00 35.40     0.287 C 
HETATM    9  C2  SGN C   3      31.035  73.909  14.790  1.00 33.71     0.182 C 
HETATM   10  C3  SGN C   3      30.835  75.390  14.449  1.00 35.79     0.178 C 
HETATM   11  C4  SGN C   3      30.308  76.190  15.653  1.00 36.62     0.186 C 
HETATM   12  C5  SGN C   3      31.141  75.884  16.891  1.00 39.32     0.181 C 
HETATM   13  O5  SGN C   3      31.148  74.468  17.144  1.00 37.58    -0.349 OA
BRANCH   9  14
HETATM   14  N2  SGN C   3      31.786  73.284  13.724  1.00 29.28    -0.289 N 
ATOM     15  H2  SGN C   3      32.772  73.500  13.575  1.00  0.00     0.175 HD
BRANCH  14  16
HETATM   16  S1  SGN C   3      30.991  72.208  12.755  1.00 27.84     0.205 S 
HETATM   17  O1S SGN C   3      30.209  73.036  11.856  1.00 27.65    -0.578 OA
HETATM   18  O2S SGN C   3      30.142  71.401  13.680  1.00 27.72    -0.578 OA
HETATM   19  O3S SGN C   3      31.988  71.361  12.028  1.00 28.50    -0.578 OA
ENDBRANCH  14  16
ENDBRANCH   9  14
BRANCH  10  20
HETATM   20  O3  SGN C   3      29.934  75.508  13.351  1.00 34.89    -0.391 OA
ATOM     21  H3  SGN C   3      29.482  74.682  13.222  1.00  0.00     0.210 HD
ENDBRANCH  10  20
BRANCH  11  22
HETATM   22  O4  SGN C   3      30.413  77.597  15.368  1.00 37.13    -0.348 OA
BRANCH  22  23
HETATM   23  C1  UAP C   4      29.243  78.323  15.527  1.00 39.64     0.294 C 
HETATM   24  C2  UAP C   4      28.975  79.159  14.289  1.00 38.70     0.228 C 
HETATM   25  C3  UAP C   4      27.741  80.031  14.503  1.00 38.51     0.156 C 
HETATM   26  C4  UAP C   4      26.537  79.280  15.240  1.00 38.14     0.077 C 
HETATM   27  C5  UAP C   4      26.867  78.026  15.773  1.00 38.51     0.228 C 
HETATM   28  O5  UAP C   4      28.179  77.397  15.703  1.00 37.46    -0.343 OA
BRANCH  24  29
HETATM   29  O2  UAP C   4      30.103  80.056  14.033  1.00 40.54    -0.244 OA
BRANCH  29  30
HETATM   30  S   UAP C   4      30.435  81.268  15.025  1.00 40.49     0.252 S 
HETATM   31  O1S UAP C   4      30.673  80.682  16.352  1.00 40.89    -0.572 OA
HETATM   32  O2S UAP C   4      29.259  82.151  15.025  1.00 37.88    -0.572 OA
HETATM   33  O3S UAP C   4      31.632  81.943  14.498  1.00 37.47    -0.572 OA
ENDBRANCH  29  30
ENDBRANCH  24  29
BRANCH  25  34
HETATM   34  O3  UAP C   4      27.293  80.514  13.246  1.00 38.58    -0.393 OA
ATOM     35  H3  UAP C   4      27.690  81.361  13.081  1.00  0.00     0.210 HD
ENDBRANCH  25  34
BRANCH  27  36
HETATM   36  C6  UAP C   4      25.869  77.160  16.460  1.00 37.96     0.203 C 
HETATM   37  O6A UAP C   4      24.863  77.703  16.958  1.00 40.05    -0.646 OA
HETATM   38  O6B UAP C   4      26.085  75.931  16.507  1.00 36.71    -0.646 OA
ENDBRANCH  27  36
ENDBRANCH  22  23
ENDBRANCH  11  22
BRANCH  12  39
HETATM   39  C6  SGN C   3      30.654  76.555  18.145  1.00 42.65     0.227 C 
BRANCH  39  40
HETATM   40  O6  SGN C   3      29.491  75.806  18.561  1.00 51.09    -0.254 OA
BRANCH  40  41
HETATM   41  S2  SGN C   3      28.749  76.325  19.876  1.00 54.80     0.251 S 
HETATM   42  O4S SGN C   3      29.752  77.017  20.705  1.00 54.99    -0.572 OA
HETATM   43  O5S SGN C   3      28.202  75.116  20.562  1.00 53.99    -0.572 OA
HETATM   44  O6S SGN C   3      27.694  77.229  19.437  1.00 55.43    -0.572 OA
ENDBRANCH  40  41
ENDBRANCH  39  40
ENDBRANCH  12  39
ENDBRANCH   7   8
ENDBRANCH   4   7
BRANCH   3  45
HETATM   45  O3  IDS C   2      33.431  74.605  19.138  1.00 39.65    -0.390 OA
ATOM     46  H3  IDS C   2      33.475  74.362  20.055  1.00  0.00     0.210 HD
ENDBRANCH   3  45
BRANCH   5  47
HETATM   47  C6  IDS C   2      35.033  72.086  15.176  1.00 36.10     0.206 C 
HETATM   48  O6A IDS C   2      34.285  71.437  14.413  1.00 32.44    -0.646 OA
HETATM   49  O6B IDS C   2      36.091  72.650  14.809  1.00 33.44    -0.646 OA
ENDBRANCH   5  47
BRANCH   2  50
HETATM   50  O2  IDS C   2      32.934  72.153  20.374  1.00 43.59    -0.244 OA
BRANCH  50  51
HETATM   51  S   IDS C   2      31.339  72.207  20.322  1.00 44.11     0.252 S 
HETATM   52  O1S IDS C   2      30.842  71.567  21.588  1.00 44.48    -0.572 OA
HETATM   53  O2S IDS C   2      30.919  71.459  19.119  1.00 44.29    -0.572 OA
HETATM   54  O3S IDS C   2      30.967  73.608  20.243  1.00 44.74    -0.572 OA
ENDBRANCH  50  51
ENDBRANCH   2  50
BRANCH   1  55
HETATM   55  O4  SGN C   1      34.373  69.959  18.743  1.00 44.73    -0.348 OA
BRANCH  55  56
HETATM   56  C4  SGN C   1      34.972  70.114  20.048  1.00 48.25     0.186 C 
HETATM   57  C3  SGN C   1      34.453  69.021  20.990  1.00 48.43     0.178 C 
HETATM   58  C2  SGN C   1      35.195  69.082  22.324  1.00 48.58     0.181 C 
HETATM   59  C1  SGN C   1      36.710  69.046  22.126  1.00 50.40     0.283 C 
HETATM   60  O5  SGN C   1      37.116  70.095  21.239  1.00 50.82    -0.349 OA
HETATM   61  C5  SGN C   1      36.501  70.001  19.933  1.00 51.58     0.181 C 
BRANCH  57  62
HETATM   62  O3  SGN C   1      33.064  69.198  21.218  1.00 46.09    -0.391 OA
ATOM     63  H3  SGN C   1      32.575  68.793  20.511  1.00  0.00     0.210 HD
ENDBRANCH  57  62
BRANCH  58  64
HETATM   64  N2  SGN C   1      34.790  67.985  23.179  1.00 48.56    -0.289 N 
ATOM     65  H2  SGN C   1      34.574  67.056  22.819  1.00  0.00     0.175 HD
BRANCH  64  66
HETATM   66  S1  SGN C   1      34.707  68.362  24.788  1.00 47.67     0.205 S 
HETATM   67  O1S SGN C   1      34.097  69.707  24.879  1.00 47.59    -0.578 OA
HETATM   68  O2S SGN C   1      36.094  68.343  25.265  1.00 48.55    -0.578 OA
HETATM   69  O3S SGN C   1      33.873  67.320  25.425  1.00 47.08    -0.578 OA
ENDBRANCH  64  66
ENDBRANCH  58  64
BRANCH  59  70
HETATM   70  O1  SGN C   1      37.085  67.829  21.575  1.00 51.36    -0.369 OA
ATOM     71  H1  SGN C   1      36.931  67.130  22.200  1.00  0.00     0.212 HD
ENDBRANCH  59  70
BRANCH  61  72
HETATM   72  C6  SGN C   1      37.104  71.098  19.092  1.00 55.48     0.227 C 
BRANCH  72  73
HETATM   73  O6  SGN C   1      36.680  72.383  19.598  1.00 61.59    -0.254 OA
BRANCH  73  74
HETATM   74  S2  SGN C   1      37.495  73.633  19.038  1.00 65.98     0.251 S 
HETATM   75  O4S SGN C   1      36.585  74.857  19.165  1.00 65.09    -0.572 OA
HETATM   76  O5S SGN C   1      37.809  73.335  17.653  1.00 65.58    -0.572 OA
HETATM   77  O6S SGN C   1      38.782  73.771  19.910  1.00 65.84    -0.572 OA
ENDBRANCH  73  74
ENDBRANCH  72  73
ENDBRANCH  61  72
ENDBRANCH  55  56
ENDBRANCH   1  55
TORSDOF 27
ENDMDL
MODEL 34
REMARK VINA RESULT:      -5.9      9.051     15.740
REMARK  27 active torsions:
REMARK  status: ('A' for Active; 'I' for Inactive)
REMARK    1  A    between atoms: C1_1  and  O1_2 
REMARK    2  A    between atoms: S1_5  and  N2_7 
REMARK    3  A    between atoms: C2_6  and  N2_7 
REMARK    4  A    between atoms: S2_10  and  O6_22 
REMARK    5  A    between atoms: C3_11  and  O3_12 
REMARK    6  A    between atoms: C4_15  and  O4_16 
REMARK    7  A    between atoms: O4_16  and  C1_24 
REMARK    8  A    between atoms: C5_18  and  C6_21 
REMARK    9  A    between atoms: C6_21  and  O6_22 
REMARK   10  A    between atoms: C2_26  and  O2_27 
REMARK   11  A    between atoms: O2_27  and  S_40 
REMARK   12  A    between atoms: C3_29  and  O3_30 
REMARK   13  A    between atoms: C4_33  and  O4_34 
REMARK   14  A    between atoms: O4_34  and  C1_41 
REMARK   15  A    between atoms: C5_35  and  C6_37 
REMARK   16  A    between atoms: S1_43  and  N2_45 
REMARK   17  A    between atoms: C2_44  and  N2_45 
REMARK   18  A    between atoms: S2_48  and  O6_60 
REMARK   19  A    between atoms: C3_49  and  O3_50 
REMARK   20  A    between atoms: C4_53  and  O4_54 
REMARK   21  A    between atoms: O4_54  and  C1_62 
REMARK   22  A    between atoms: C5_56  and  C6_59 
REMARK   23  A    between atoms: C6_59  and  O6_60 
REMARK   24  A    between atoms: C2_64  and  O2_65 
REMARK   25  A    between atoms: O2_65  and  S_77 
REMARK   26  A    between atoms: C3_67  and  O3_68 
REMARK   27  A    between atoms: C5_72  and  C6_74 
ROOT
HETATM    1  C1  IDS C   2      37.067  71.398  21.357  1.00 40.81     0.294 C 
HETATM    2  C2  IDS C   2      38.394  71.226  22.100  1.00 40.20     0.231 C 
HETATM    3  C3  IDS C   2      38.437  69.896  22.846  1.00 39.01     0.185 C 
HETATM    4  C4  IDS C   2      37.300  69.808  23.884  1.00 37.65     0.195 C 
HETATM    5  C5  IDS C   2      36.184  70.796  23.521  1.00 35.99     0.257 C 
HETATM    6  O5  IDS C   2      35.978  70.792  22.088  1.00 39.00    -0.340 OA
ENDROOT
BRANCH   4   7
HETATM    7  O4  IDS C   2      36.773  68.458  23.923  1.00 35.98    -0.348 OA
BRANCH   7   8
HETATM    8  C1  SGN C   3      37.065  67.651  22.813  1.00 35.40     0.287 C 
HETATM    9  C2  SGN C   3      35.932  66.633  22.587  1.00 33.71     0.182 C 
HETATM   10  C3  SGN C   3      35.933  65.517  23.638  1.00 35.79     0.178 C 
HETATM   11  C4  SGN C   3      37.341  64.939  23.862  1.00 36.62     0.186 C 
HETATM   12  C5  SGN C   3      38.343  66.068  24.067  1.00 39.32     0.181 C 
HETATM   13  O5  SGN C   3      38.302  66.976  22.952  1.00 37.58    -0.349 OA
BRANCH   9  14
HETATM   14  N2  SGN C   3      34.656  67.313  22.631  1.00 29.28    -0.289 N 
ATOM     15  H2  SGN C   3      34.418  67.938  23.400  1.00  0.00     0.175 HD
BRANCH  14  16
HETATM   16  S1  SGN C   3      33.600  67.040  21.391  1.00 27.84     0.205 S 
HETATM   17  O1S SGN C   3      33.044  68.346  21.092  1.00 27.65    -0.578 OA
HETATM   18  O2S SGN C   3      32.585  66.093  21.942  1.00 27.72    -0.578 OA
HETATM   19  O3S SGN C   3      34.338  66.455  20.227  1.00 28.50    -0.578 OA
ENDBRANCH  14  16
ENDBRANCH   9  14
BRANCH  10  20
HETATM   20  O3  SGN C   3      35.039  64.483  23.234  1.00 34.89    -0.391 OA
ATOM     21  H3  SGN C   3      34.447  64.818  22.570  1.00  0.00     0.210 HD
ENDBRANCH  10  20
BRANCH  11  22
HETATM   22  O4  SGN C   3      37.332  64.115  25.041  1.00 37.13    -0.348 OA
BRANCH  22  23
HETATM   23  C1  UAP C   4      37.540  62.763  24.821  1.00 39.64     0.294 C 
HETATM   24  C2  UAP C   4      36.746  61.943  25.822  1.00 38.70     0.228 C 
HETATM   25  C3  UAP C   4      37.051  60.458  25.642  1.00 38.51     0.156 C 
HETATM   26  C4  UAP C   4      37.135  59.995  24.114  1.00 38.14     0.077 C 
HETATM   27  C5  UAP C   4      37.141  61.044  23.183  1.00 38.51     0.228 C 
HETATM   28  O5  UAP C   4      37.083  62.462  23.509  1.00 37.46    -0.343 OA
BRANCH  24  29
HETATM   29  O2  UAP C   4      37.132  62.304  27.187  1.00 40.54    -0.244 OA
BRANCH  29  30
HETATM   30  S   UAP C   4      38.601  61.988  27.740  1.00 40.49     0.252 S 
HETATM   31  O1S UAP C   4      38.435  61.237  28.993  1.00 40.89    -0.572 OA
HETATM   32  O2S UAP C   4      39.257  63.284  27.967  1.00 37.88    -0.572 OA
HETATM   33  O3S UAP C   4      39.289  61.193  26.710  1.00 37.47    -0.572 OA
ENDBRANCH  29  30
ENDBRANCH  24  29
BRANCH  25  34
HETATM   34  O3  UAP C   4      36.054  59.698  26.308  1.00 38.58    -0.393 OA
ATOM     35  H3  UAP C   4      35.773  60.169  27.084  1.00  0.00     0.210 HD
ENDBRANCH  25  34
BRANCH  27  36
HETATM   36  C6  UAP C   4      37.175  60.809  21.713  1.00 37.96     0.203 C 
HETATM   37  O6A UAP C   4      37.838  61.593  21.006  1.00 40.05    -0.646 OA
HETATM   38  O6B UAP C   4      36.536  59.838  21.255  1.00 36.71    -0.646 OA
ENDBRANCH  27  36
ENDBRANCH  22  23
ENDBRANCH  11  22
BRANCH  12  39
HETATM   39  C6  SGN C   3      39.768  65.610  24.212  1.00 42.65     0.227 C 
BRANCH  39  40
HETATM   40  O6  SGN C   3      40.582  66.763  23.904  1.00 51.09    -0.254 OA
BRANCH  40  41
HETATM   41  S2  SGN C   3      41.582  66.614  22.669  1.00 54.80     0.251 S 
HETATM   42  O4S SGN C   3      42.942  66.467  23.218  1.00 54.99    -0.572 OA
HETATM   43  O5S SGN C   3      41.444  67.859  21.856  1.00 53.99    -0.572 OA
HETATM   44  O6S SGN C   3      41.167  65.429  21.930  1.00 55.43    -0.572 OA
ENDBRANCH  40  41
ENDBRANCH  39  40
ENDBRANCH  12  39
ENDBRANCH   7   8
ENDBRANCH   4   7
BRANCH   3  45
HETATM   45  O3  IDS C   2      39.694  69.756  23.495  1.00 39.65    -0.390 OA
ATOM     46  H3  IDS C   2      39.559  69.449  24.383  1.00  0.00     0.210 HD
ENDBRANCH   3  45
BRANCH   5  47
HETATM   47  C6  IDS C   2      34.842  70.525  24.187  1.00 36.10     0.206 C 
HETATM   48  O6A IDS C   2      33.860  70.308  23.444  1.00 32.44    -0.646 OA
HETATM   49  O6B IDS C   2      34.790  70.517  25.440  1.00 33.44    -0.646 OA
ENDBRANCH   5  47
BRANCH   2  50
HETATM   50  O2  IDS C   2      39.496  71.251  21.147  1.00 43.59    -0.244 OA
BRANCH  50  51
HETATM   51  S   IDS C   2      40.673  72.314  21.329  1.00 44.11     0.252 S 
HETATM   52  O1S IDS C   2      41.300  72.043  22.667  1.00 44.48    -0.572 OA
HETATM   53  O2S IDS C   2      40.057  73.656  21.264  1.00 44.29    -0.572 OA
HETATM   54  O3S IDS C   2      41.608  72.098  20.240  1.00 44.74    -0.572 OA
ENDBRANCH  50  51
ENDBRANCH   2  50
BRANCH   1  55
HETATM   55  O4  SGN C   1      36.795  72.750  21.201  1.00 44.73    -0.348 OA
BRANCH  55  56
HETATM   56  C4  SGN C   1      35.931  73.138  20.110  1.00 48.25     0.186 C 
HETATM   57  C3  SGN C   1      34.584  73.621  20.662  1.00 48.43     0.178 C 
HETATM   58  C2  SGN C   1      33.723  74.178  19.530  1.00 48.58     0.181 C 
HETATM   59  C1  SGN C   1      34.469  75.243  18.728  1.00 50.40     0.283 C 
HETATM   60  O5  SGN C   1      35.711  74.717  18.246  1.00 50.82    -0.349 OA
HETATM   61  C5  SGN C   1      36.587  74.274  19.308  1.00 51.58     0.181 C 
BRANCH  57  62
HETATM   62  O3  SGN C   1      33.902  72.543  21.284  1.00 46.09    -0.391 OA
ATOM     63  H3  SGN C   1      34.382  72.272  22.058  1.00  0.00     0.210 HD
ENDBRANCH  57  62
BRANCH  58  64
HETATM   64  N2  SGN C   1      32.494  74.737  20.057  1.00 48.56    -0.289 N 
ATOM     65  H2  SGN C   1      32.480  75.538  20.687  1.00  0.00     0.175 HD
BRANCH  64  66
HETATM   66  S1  SGN C   1      31.118  73.969  19.553  1.00 47.67     0.205 S 
HETATM   67  O1S SGN C   1      31.217  72.569  20.021  1.00 47.59    -0.578 OA
HETATM   68  O2S SGN C   1      31.126  74.074  18.091  1.00 48.55    -0.578 OA
HETATM   69  O3S SGN C   1      29.982  74.690  20.168  1.00 47.08    -0.578 OA
ENDBRANCH  64  66
ENDBRANCH  58  64
BRANCH  59  70
HETATM   70  O1  SGN C   1      34.734  76.340  19.535  1.00 51.36    -0.369 OA
ATOM     71  H1  SGN C   1      33.961  76.567  20.037  1.00  0.00     0.212 HD
ENDBRANCH  59  70
BRANCH  61  72
HETATM   72  C6  SGN C   1      37.879  73.853  18.654  1.00 55.48     0.227 C 
BRANCH  72  73
HETATM   73  O6  SGN C   1      37.686  73.748  17.227  1.00 61.59    -0.254 OA
BRANCH  73  74
HETATM   74  S2  SGN C   1      37.764  72.268  16.641  1.00 65.98     0.251 S 
HETATM   75  O4S SGN C   1      36.344  71.870  16.229  1.00 65.09    -0.572 OA
HETATM   76  O5S SGN C   1      38.272  71.426  17.708  1.00 65.58    -0.572 OA
HETATM   77  O6S SGN C   1      38.735  72.307  15.419  1.00 65.84    -0.572 OA
ENDBRANCH  73  74
ENDBRANCH  72  73
ENDBRANCH  61  72
ENDBRANCH  55  56
ENDBRANCH   1  55
TORSDOF 27
ENDMDL
MODEL 35
REMARK VINA RESULT:      -5.9      6.133     13.734
REMARK  27 active torsions:
REMARK  status: ('A' for Active; 'I' for Inactive)
REMARK    1  A    between atoms: C1_1  and  O1_2 
REMARK    2  A    between atoms: S1_5  and  N2_7 
REMARK    3  A    between atoms: C2_6  and  N2_7 
REMARK    4  A    between atoms: S2_10  and  O6_22 
REMARK    5  A    between atoms: C3_11  and  O3_12 
REMARK    6  A    between atoms: C4_15  and  O4_16 
REMARK    7  A    between atoms: O4_16  and  C1_24 
REMARK    8  A    between atoms: C5_18  and  C6_21 
REMARK    9  A    between atoms: C6_21  and  O6_22 
REMARK   10  A    between atoms: C2_26  and  O2_27 
REMARK   11  A    between atoms: O2_27  and  S_40 
REMARK   12  A    between atoms: C3_29  and  O3_30 
REMARK   13  A    between atoms: C4_33  and  O4_34 
REMARK   14  A    between atoms: O4_34  and  C1_41 
REMARK   15  A    between atoms: C5_35  and  C6_37 
REMARK   16  A    between atoms: S1_43  and  N2_45 
REMARK   17  A    between atoms: C2_44  and  N2_45 
REMARK   18  A    between atoms: S2_48  and  O6_60 
REMARK   19  A    between atoms: C3_49  and  O3_50 
REMARK   20  A    between atoms: C4_53  and  O4_54 
REMARK   21  A    between atoms: O4_54  and  C1_62 
REMARK   22  A    between atoms: C5_56  and  C6_59 
REMARK   23  A    between atoms: C6_59  and  O6_60 
REMARK   24  A    between atoms: C2_64  and  O2_65 
REMARK   25  A    between atoms: O2_65  and  S_77 
REMARK   26  A    between atoms: C3_67  and  O3_68 
REMARK   27  A    between atoms: C5_72  and  C6_74 
ROOT
HETATM    1  C1  IDS C   2      26.063  85.102  12.780  1.00 40.81     0.294 C 
HETATM    2  C2  IDS C   2      25.839  86.411  12.019  1.00 40.20     0.231 C 
HETATM    3  C3  IDS C   2      24.423  86.483  11.456  1.00 39.01     0.185 C 
HETATM    4  C4  IDS C   2      24.155  85.319  10.481  1.00 37.65     0.195 C 
HETATM    5  C5  IDS C   2      25.144  84.177  10.749  1.00 35.99     0.257 C 
HETATM    6  O5  IDS C   2      25.326  84.016  12.176  1.00 39.00    -0.340 OA
ENDROOT
BRANCH   4   7
HETATM    7  O4  IDS C   2      22.795  84.845  10.643  1.00 35.98    -0.348 OA
BRANCH   7   8
HETATM    8  C1  SGN C   3      22.083  85.375  11.728  1.00 35.40     0.287 C 
HETATM    9  C2  SGN C   3      21.390  84.244  12.509  1.00 33.71     0.182 C 
HETATM   10  C3  SGN C   3      20.185  83.669  11.755  1.00 35.79     0.178 C 
HETATM   11  C4  SGN C   3      19.275  84.777  11.196  1.00 36.62     0.186 C 
HETATM   12  C5  SGN C   3      20.108  85.815  10.456  1.00 39.32     0.181 C 
HETATM   13  O5  SGN C   3      21.129  86.340  11.324  1.00 37.58    -0.349 OA
BRANCH   9  14
HETATM   14  N2  SGN C   3      22.335  83.178  12.757  1.00 29.28    -0.289 N 
ATOM     15  H2  SGN C   3      22.873  82.763  11.996  1.00  0.00     0.175 HD
BRANCH  14  16
HETATM   16  S1  SGN C   3      22.511  82.657  14.314  1.00 27.84     0.205 S 
HETATM   17  O1S SGN C   3      21.337  83.159  15.002  1.00 27.65    -0.578 OA
HETATM   18  O2S SGN C   3      23.776  83.286  14.797  1.00 27.72    -0.578 OA
HETATM   19  O3S SGN C   3      22.587  81.162  14.333  1.00 28.50    -0.578 OA
ENDBRANCH  14  16
ENDBRANCH   9  14
BRANCH  10  20
HETATM   20  O3  SGN C   3      19.442  82.818  12.624  1.00 34.89    -0.391 OA
ATOM     21  H3  SGN C   3      18.565  82.699  12.278  1.00  0.00     0.210 HD
ENDBRANCH  10  20
BRANCH  11  22
HETATM   22  O4  SGN C   3      18.338  84.197  10.270  1.00 37.13    -0.348 OA
BRANCH  22  23
HETATM   23  C1  UAP C   4      17.002  84.437  10.549  1.00 39.64     0.294 C 
HETATM   24  C2  UAP C   4      16.137  83.988   9.385  1.00 38.70     0.228 C 
HETATM   25  C3  UAP C   4      14.676  84.342   9.652  1.00 38.51     0.156 C 
HETATM   26  C4  UAP C   4      14.207  84.064  11.154  1.00 38.14     0.077 C 
HETATM   27  C5  UAP C   4      15.244  83.756  12.046  1.00 38.51     0.228 C 
HETATM   28  O5  UAP C   4      16.658  83.682  11.703  1.00 37.46    -0.343 OA
BRANCH  24  29
HETATM   29  O2  UAP C   4      16.538  84.686   8.162  1.00 40.54    -0.244 OA
BRANCH  29  30
HETATM   30  S   UAP C   4      16.875  83.876   6.823  1.00 40.49     0.252 S 
HETATM   31  O1S UAP C   4      17.769  82.772   7.204  1.00 40.89    -0.572 OA
HETATM   32  O2S UAP C   4      17.536  84.820   5.911  1.00 37.88    -0.572 OA
HETATM   33  O3S UAP C   4      15.598  83.386   6.281  1.00 37.47    -0.572 OA
ENDBRANCH  29  30
ENDBRANCH  24  29
BRANCH  25  34
HETATM   34  O3  UAP C   4      13.853  83.607   8.760  1.00 38.58    -0.393 OA
ATOM     35  H3  UAP C   4      13.099  83.280   9.235  1.00  0.00     0.210 HD
ENDBRANCH  25  34
BRANCH  27  36
HETATM   36  C6  UAP C   4      14.998  83.428  13.478  1.00 37.96     0.203 C 
HETATM   37  O6A UAP C   4      15.965  83.465  14.265  1.00 40.05    -0.646 OA
HETATM   38  O6B UAP C   4      13.836  83.128  13.824  1.00 36.71    -0.646 OA
ENDBRANCH  27  36
ENDBRANCH  22  23
ENDBRANCH  11  22
BRANCH  12  39
HETATM   39  C6  SGN C   3      19.319  86.987   9.942  1.00 42.65     0.227 C 
BRANCH  39  40
HETATM   40  O6  SGN C   3      19.265  87.931  11.034  1.00 51.09    -0.254 OA
BRANCH  40  41
HETATM   41  S2  SGN C   3      17.813  88.285  11.593  1.00 54.80     0.251 S 
HETATM   42  O4S SGN C   3      16.841  87.962  10.533  1.00 54.99    -0.572 OA
HETATM   43  O5S SGN C   3      17.822  89.744  11.911  1.00 53.99    -0.572 OA
HETATM   44  O6S SGN C   3      17.607  87.468  12.782  1.00 55.43    -0.572 OA
ENDBRANCH  40  41
ENDBRANCH  39  40
ENDBRANCH  12  39
ENDBRANCH   7   8
ENDBRANCH   4   7
BRANCH   3  45
HETATM   45  O3  IDS C   2      24.241  87.724  10.787  1.00 39.65    -0.390 OA
ATOM     46  H3  IDS C   2      23.531  87.645  10.161  1.00  0.00     0.210 HD
ENDBRANCH   3  45
BRANCH   5  47
HETATM   47  C6  IDS C   2      24.739  82.827  10.175  1.00 36.10     0.206 C 
HETATM   48  O6A IDS C   2      24.631  82.734   8.932  1.00 32.44    -0.646 OA
HETATM   49  O6B IDS C   2      24.548  81.874  10.968  1.00 33.44    -0.646 OA
ENDBRANCH   5  47
BRANCH   2  50
HETATM   50  O2  IDS C   2      26.030  87.541  12.919  1.00 43.59    -0.244 OA
BRANCH  50  51
HETATM   51  S   IDS C   2      27.151  88.630  12.592  1.00 44.11     0.252 S 
HETATM   52  O1S IDS C   2      26.712  89.342  11.343  1.00 44.48    -0.572 OA
HETATM   53  O2S IDS C   2      28.422  87.900  12.400  1.00 44.29    -0.572 OA
HETATM   54  O3S IDS C   2      27.212  89.527  13.731  1.00 44.74    -0.572 OA
ENDBRANCH  50  51
ENDBRANCH   2  50
BRANCH   1  55
HETATM   55  O4  SGN C   1      27.413  84.782  12.764  1.00 44.73    -0.348 OA
BRANCH  55  56
HETATM   56  C4  SGN C   1      27.905  83.899  13.796  1.00 48.25     0.186 C 
HETATM   57  C3  SGN C   1      28.407  82.594  13.167  1.00 48.43     0.178 C 
HETATM   58  C2  SGN C   1      29.070  81.720  14.230  1.00 48.58     0.181 C 
HETATM   59  C1  SGN C   1      30.152  82.484  14.991  1.00 50.40     0.283 C 
HETATM   60  O5  SGN C   1      29.607  83.686  15.550  1.00 50.82    -0.349 OA
HETATM   61  C5  SGN C   1      29.061  84.577  14.550  1.00 51.58     0.181 C 
BRANCH  57  62
HETATM   62  O3  SGN C   1      27.322  81.887  12.588  1.00 46.09    -0.391 OA
ATOM     63  H3  SGN C   1      26.737  81.592  13.277  1.00  0.00     0.210 HD
ENDBRANCH  57  62
BRANCH  58  64
HETATM   64  N2  SGN C   1      29.645  80.536  13.626  1.00 48.56    -0.289 N 
ATOM     65  H2  SGN C   1      30.088  80.546  12.707  1.00  0.00     0.175 HD
BRANCH  64  66
HETATM   66  S1  SGN C   1      29.522  79.166  14.545  1.00 47.67     0.205 S 
HETATM   67  O1S SGN C   1      29.221  78.055  13.615  1.00 47.59    -0.578 OA
HETATM   68  O2S SGN C   1      28.426  79.423  15.484  1.00 48.55    -0.578 OA
HETATM   69  O3S SGN C   1      30.825  78.995  15.225  1.00 47.08    -0.578 OA
ENDBRANCH  64  66
ENDBRANCH  58  64
BRANCH  59  70
HETATM   70  O1  SGN C   1      31.184  82.825  14.129  1.00 51.36    -0.369 OA
ATOM     71  H1  SGN C   1      31.032  82.438  13.275  1.00  0.00     0.212 HD
ENDBRANCH  59  70
BRANCH  61  72
HETATM   72  C6  SGN C   1      28.629  85.827  15.276  1.00 55.48     0.227 C 
BRANCH  72  73
HETATM   73  O6  SGN C   1      28.441  85.531  16.676  1.00 61.59    -0.254 OA
BRANCH  73  74
HETATM   74  S2  SGN C   1      27.816  86.716  17.540  1.00 65.98     0.251 S 
HETATM   75  O4S SGN C   1      28.637  86.816  18.828  1.00 65.09    -0.572 OA
HETATM   76  O5S SGN C   1      26.437  86.351  17.805  1.00 65.58    -0.572 OA
HETATM   77  O6S SGN C   1      27.920  88.015  16.681  1.00 65.84    -0.572 OA
ENDBRANCH  73  74
ENDBRANCH  72  73
ENDBRANCH  61  72
ENDBRANCH  55  56
ENDBRANCH   1  55
TORSDOF 27
ENDMDL
MODEL 36
REMARK VINA RESULT:      -5.9      7.671     12.702
REMARK  27 active torsions:
REMARK  status: ('A' for Active; 'I' for Inactive)
REMARK    1  A    between atoms: C1_1  and  O1_2 
REMARK    2  A    between atoms: S1_5  and  N2_7 
REMARK    3  A    between atoms: C2_6  and  N2_7 
REMARK    4  A    between atoms: S2_10  and  O6_22 
REMARK    5  A    between atoms: C3_11  and  O3_12 
REMARK    6  A    between atoms: C4_15  and  O4_16 
REMARK    7  A    between atoms: O4_16  and  C1_24 
REMARK    8  A    between atoms: C5_18  and  C6_21 
REMARK    9  A    between atoms: C6_21  and  O6_22 
REMARK   10  A    between atoms: C2_26  and  O2_27 
REMARK   11  A    between atoms: O2_27  and  S_40 
REMARK   12  A    between atoms: C3_29  and  O3_30 
REMARK   13  A    between atoms: C4_33  and  O4_34 
REMARK   14  A    between atoms: O4_34  and  C1_41 
REMARK   15  A    between atoms: C5_35  and  C6_37 
REMARK   16  A    between atoms: S1_43  and  N2_45 
REMARK   17  A    between atoms: C2_44  and  N2_45 
REMARK   18  A    between atoms: S2_48  and  O6_60 
REMARK   19  A    between atoms: C3_49  and  O3_50 
REMARK   20  A    between atoms: C4_53  and  O4_54 
REMARK   21  A    between atoms: O4_54  and  C1_62 
REMARK   22  A    between atoms: C5_56  and  C6_59 
REMARK   23  A    between atoms: C6_59  and  O6_60 
REMARK   24  A    between atoms: C2_64  and  O2_65 
REMARK   25  A    between atoms: O2_65  and  S_77 
REMARK   26  A    between atoms: C3_67  and  O3_68 
REMARK   27  A    between atoms: C5_72  and  C6_74 
ROOT
HETATM    1  C1  IDS C   2      33.609  72.338  18.455  1.00 40.81     0.294 C 
HETATM    2  C2  IDS C   2      33.650  71.245  17.383  1.00 40.20     0.231 C 
HETATM    3  C3  IDS C   2      34.247  69.955  17.939  1.00 39.01     0.185 C 
HETATM    4  C4  IDS C   2      35.689  70.183  18.437  1.00 37.65     0.195 C 
HETATM    5  C5  IDS C   2      35.914  71.675  18.716  1.00 35.99     0.257 C 
HETATM    6  O5  IDS C   2      34.738  72.234  19.349  1.00 39.00    -0.340 OA
ENDROOT
BRANCH   4   7
HETATM    7  O4  IDS C   2      35.920  69.412  19.642  1.00 35.98    -0.348 OA
BRANCH   7   8
HETATM    8  C1  SGN C   3      34.775  69.013  20.348  1.00 35.40     0.287 C 
HETATM    9  C2  SGN C   3      35.120  68.786  21.830  1.00 33.71     0.182 C 
HETATM   10  C3  SGN C   3      35.933  67.505  22.050  1.00 35.79     0.178 C 
HETATM   11  C4  SGN C   3      35.334  66.307  21.292  1.00 36.62     0.186 C 
HETATM   12  C5  SGN C   3      35.049  66.692  19.846  1.00 39.32     0.181 C 
HETATM   13  O5  SGN C   3      34.189  67.845  19.802  1.00 37.58    -0.349 OA
BRANCH   9  14
HETATM   14  N2  SGN C   3      35.881  69.911  22.327  1.00 29.28    -0.289 N 
ATOM     15  H2  SGN C   3      36.727  70.227  21.853  1.00  0.00     0.175 HD
BRANCH  14  16
HETATM   16  S1  SGN C   3      35.331  70.666  23.690  1.00 27.84     0.205 S 
HETATM   17  O1S SGN C   3      36.017  71.944  23.700  1.00 27.65    -0.578 OA
HETATM   18  O2S SGN C   3      35.743  69.782  24.820  1.00 27.72    -0.578 OA
HETATM   19  O3S SGN C   3      33.844  70.817  23.610  1.00 28.50    -0.578 OA
ENDBRANCH  14  16
ENDBRANCH   9  14
BRANCH  10  20
HETATM   20  O3  SGN C   3      36.000  67.217  23.444  1.00 34.89    -0.391 OA
ATOM     21  H3  SGN C   3      35.819  68.008  23.940  1.00  0.00     0.210 HD
ENDBRANCH  10  20
BRANCH  11  22
HETATM   22  O4  SGN C   3      36.280  65.223  21.299  1.00 37.13    -0.348 OA
BRANCH  22  23
HETATM   23  C1  UAP C   4      35.804  64.023  21.803  1.00 39.64     0.294 C 
HETATM   24  C2  UAP C   4      36.672  62.874  21.324  1.00 38.70     0.228 C 
HETATM   25  C3  UAP C   4      36.091  61.545  21.798  1.00 38.51     0.156 C 
HETATM   26  C4  UAP C   4      35.558  61.573  23.305  1.00 38.14     0.077 C 
HETATM   27  C5  UAP C   4      35.497  62.850  23.882  1.00 38.51     0.228 C 
HETATM   28  O5  UAP C   4      35.867  64.094  23.221  1.00 37.46    -0.343 OA
BRANCH  24  29
HETATM   29  O2  UAP C   4      36.698  62.839  19.860  1.00 40.54    -0.244 OA
BRANCH  29  30
HETATM   30  S   UAP C   4      38.085  62.844  19.059  1.00 40.49     0.252 S 
HETATM   31  O1S UAP C   4      37.793  62.377  17.696  1.00 40.89    -0.572 OA
HETATM   32  O2S UAP C   4      38.987  61.924  19.767  1.00 37.88    -0.572 OA
HETATM   33  O3S UAP C   4      38.586  64.228  19.071  1.00 37.47    -0.572 OA
ENDBRANCH  29  30
ENDBRANCH  24  29
BRANCH  25  34
HETATM   34  O3  UAP C   4      37.080  60.536  21.670  1.00 38.58    -0.393 OA
ATOM     35  H3  UAP C   4      37.679  60.595  22.405  1.00  0.00     0.210 HD
ENDBRANCH  25  34
BRANCH  27  36
HETATM   36  C6  UAP C   4      35.064  63.073  25.290  1.00 37.96     0.203 C 
HETATM   37  O6A UAP C   4      34.666  64.210  25.611  1.00 40.05    -0.646 OA
HETATM   38  O6B UAP C   4      35.122  62.111  26.085  1.00 36.71    -0.646 OA
ENDBRANCH  27  36
ENDBRANCH  22  23
ENDBRANCH  11  22
BRANCH  12  39
HETATM   39  C6  SGN C   3      34.382  65.613  19.040  1.00 42.65     0.227 C 
BRANCH  39  40
HETATM   40  O6  SGN C   3      34.002  66.235  17.793  1.00 51.09    -0.254 OA
BRANCH  40  41
HETATM   41  S2  SGN C   3      34.287  65.395  16.467  1.00 54.80     0.251 S 
HETATM   42  O4S SGN C   3      35.562  64.680  16.662  1.00 54.99    -0.572 OA
HETATM   43  O5S SGN C   3      34.370  66.380  15.348  1.00 53.99    -0.572 OA
HETATM   44  O6S SGN C   3      33.171  64.473  16.302  1.00 55.43    -0.572 OA
ENDBRANCH  40  41
ENDBRANCH  39  40
ENDBRANCH  12  39
ENDBRANCH   7   8
ENDBRANCH   4   7
BRANCH   3  45
HETATM   45  O3  IDS C   2      34.238  68.956  16.929  1.00 39.65    -0.390 OA
ATOM     46  H3  IDS C   2      33.393  68.522  16.920  1.00  0.00     0.210 HD
ENDBRANCH   3  45
BRANCH   5  47
HETATM   47  C6  IDS C   2      37.114  71.989  19.599  1.00 36.10     0.206 C 
HETATM   48  O6A IDS C   2      38.252  71.764  19.132  1.00 32.44    -0.646 OA
HETATM   49  O6B IDS C   2      36.906  72.471  20.738  1.00 33.44    -0.646 OA
ENDBRANCH   5  47
BRANCH   2  50
HETATM   50  O2  IDS C   2      32.298  70.960  16.921  1.00 43.59    -0.244 OA
BRANCH  50  51
HETATM   51  S   IDS C   2      31.937  71.142  15.377  1.00 44.11     0.252 S 
HETATM   52  O1S IDS C   2      30.731  70.287  15.109  1.00 44.48    -0.572 OA
HETATM   53  O2S IDS C   2      33.116  70.701  14.602  1.00 44.29    -0.572 OA
HETATM   54  O3S IDS C   2      31.656  72.551  15.173  1.00 44.74    -0.572 OA
ENDBRANCH  50  51
ENDBRANCH   2  50
BRANCH   1  55
HETATM   55  O4  SGN C   1      33.641  73.585  17.845  1.00 44.73    -0.348 OA
BRANCH  55  56
HETATM   56  C4  SGN C   1      34.087  74.707  18.638  1.00 48.25     0.186 C 
HETATM   57  C3  SGN C   1      35.139  75.506  17.860  1.00 48.43     0.178 C 
HETATM   58  C2  SGN C   1      35.502  76.779  18.624  1.00 48.58     0.181 C 
HETATM   59  C1  SGN C   1      34.260  77.593  18.980  1.00 50.40     0.283 C 
HETATM   60  O5  SGN C   1      33.329  76.781  19.706  1.00 50.82    -0.349 OA
HETATM   61  C5  SGN C   1      32.893  75.620  18.962  1.00 51.58     0.181 C 
BRANCH  57  62
HETATM   62  O3  SGN C   1      36.306  74.721  17.676  1.00 46.09    -0.391 OA
ATOM     63  H3  SGN C   1      36.152  73.846  18.016  1.00  0.00     0.210 HD
ENDBRANCH  57  62
BRANCH  58  64
HETATM   64  N2  SGN C   1      36.412  77.594  17.845  1.00 48.56    -0.289 N 
ATOM     65  H2  SGN C   1      36.168  77.970  16.929  1.00  0.00     0.175 HD
BRANCH  64  66
HETATM   66  S1  SGN C   1      37.878  77.865  18.562  1.00 47.67     0.205 S 
HETATM   67  O1S SGN C   1      38.747  78.478  17.534  1.00 47.59    -0.578 OA
HETATM   68  O2S SGN C   1      38.355  76.544  18.985  1.00 48.55    -0.578 OA
HETATM   69  O3S SGN C   1      37.629  78.771  19.705  1.00 47.08    -0.578 OA
ENDBRANCH  64  66
ENDBRANCH  58  64
BRANCH  59  70
HETATM   70  O1  SGN C   1      33.645  78.047  17.823  1.00 51.36    -0.369 OA
ATOM     71  H1  SGN C   1      33.971  78.911  17.601  1.00  0.00     0.212 HD
ENDBRANCH  59  70
BRANCH  61  72
HETATM   72  C6  SGN C   1      31.848  74.934  19.807  1.00 55.48     0.227 C 
BRANCH  72  73
HETATM   73  O6  SGN C   1      30.538  75.194  19.259  1.00 61.59    -0.254 OA
BRANCH  73  74
HETATM   74  S2  SGN C   1      29.582  76.076  20.181  1.00 65.98     0.251 S 
HETATM   75  O4S SGN C   1      28.950  77.143  19.285  1.00 65.09    -0.572 OA
HETATM   76  O5S SGN C   1      30.424  76.662  21.208  1.00 65.58    -0.572 OA
HETATM   77  O6S SGN C   1      28.512  75.115  20.787  1.00 65.84    -0.572 OA
ENDBRANCH  73  74
ENDBRANCH  72  73
ENDBRANCH  61  72
ENDBRANCH  55  56
ENDBRANCH   1  55
TORSDOF 27
ENDMDL
MODEL 37
REMARK VINA RESULT:      -5.8      8.651     15.532
REMARK  27 active torsions:
REMARK  status: ('A' for Active; 'I' for Inactive)
REMARK    1  A    between atoms: C1_1  and  O1_2 
REMARK    2  A    between atoms: S1_5  and  N2_7 
REMARK    3  A    between atoms: C2_6  and  N2_7 
REMARK    4  A    between atoms: S2_10  and  O6_22 
REMARK    5  A    between atoms: C3_11  and  O3_12 
REMARK    6  A    between atoms: C4_15  and  O4_16 
REMARK    7  A    between atoms: O4_16  and  C1_24 
REMARK    8  A    between atoms: C5_18  and  C6_21 
REMARK    9  A    between atoms: C6_21  and  O6_22 
REMARK   10  A    between atoms: C2_26  and  O2_27 
REMARK   11  A    between atoms: O2_27  and  S_40 
REMARK   12  A    between atoms: C3_29  and  O3_30 
REMARK   13  A    between atoms: C4_33  and  O4_34 
REMARK   14  A    between atoms: O4_34  and  C1_41 
REMARK   15  A    between atoms: C5_35  and  C6_37 
REMARK   16  A    between atoms: S1_43  and  N2_45 
REMARK   17  A    between atoms: C2_44  and  N2_45 
REMARK   18  A    between atoms: S2_48  and  O6_60 
REMARK   19  A    between atoms: C3_49  and  O3_50 
REMARK   20  A    between atoms: C4_53  and  O4_54 
REMARK   21  A    between atoms: O4_54  and  C1_62 
REMARK   22  A    between atoms: C5_56  and  C6_59 
REMARK   23  A    between atoms: C6_59  and  O6_60 
REMARK   24  A    between atoms: C2_64  and  O2_65 
REMARK   25  A    between atoms: O2_65  and  S_77 
REMARK   26  A    between atoms: C3_67  and  O3_68 
REMARK   27  A    between atoms: C5_72  and  C6_74 
ROOT
HETATM    1  C1  IDS C   2      36.798  71.617  21.298  1.00 40.81     0.294 C 
HETATM    2  C2  IDS C   2      38.139  71.429  22.011  1.00 40.20     0.231 C 
HETATM    3  C3  IDS C   2      38.179  70.102  22.764  1.00 39.01     0.185 C 
HETATM    4  C4  IDS C   2      37.065  70.037  23.828  1.00 37.65     0.195 C 
HETATM    5  C5  IDS C   2      35.956  71.041  23.484  1.00 35.99     0.257 C 
HETATM    6  O5  IDS C   2      35.717  71.032  22.057  1.00 39.00    -0.340 OA
ENDROOT
BRANCH   4   7
HETATM    7  O4  IDS C   2      36.518  68.696  23.886  1.00 35.98    -0.348 OA
BRANCH   7   8
HETATM    8  C1  SGN C   3      36.811  67.863  22.796  1.00 35.40     0.287 C 
HETATM    9  C2  SGN C   3      35.536  67.145  22.321  1.00 33.71     0.182 C 
HETATM   10  C3  SGN C   3      35.094  66.041  23.289  1.00 35.79     0.178 C 
HETATM   11  C4  SGN C   3      36.269  65.144  23.713  1.00 36.62     0.186 C 
HETATM   12  C5  SGN C   3      37.450  66.002  24.152  1.00 39.32     0.181 C 
HETATM   13  O5  SGN C   3      37.817  66.914  23.102  1.00 37.58    -0.349 OA
BRANCH   9  14
HETATM   14  N2  SGN C   3      34.462  68.105  22.189  1.00 29.28    -0.289 N 
ATOM     15  H2  SGN C   3      34.164  68.677  22.979  1.00  0.00     0.175 HD
BRANCH  14  16
HETATM   16  S1  SGN C   3      33.734  68.242  20.712  1.00 27.84     0.205 S 
HETATM   17  O1S SGN C   3      32.815  67.121  20.653  1.00 27.65    -0.578 OA
HETATM   18  O2S SGN C   3      34.842  68.133  19.718  1.00 27.72    -0.578 OA
HETATM   19  O3S SGN C   3      33.031  69.561  20.624  1.00 28.50    -0.578 OA
ENDBRANCH  14  16
ENDBRANCH   9  14
BRANCH  10  20
HETATM   20  O3  SGN C   3      34.074  65.254  22.678  1.00 34.89    -0.391 OA
ATOM     21  H3  SGN C   3      34.068  65.415  21.742  1.00  0.00     0.210 HD
ENDBRANCH  10  20
BRANCH  11  22
HETATM   22  O4  SGN C   3      35.862  64.324  24.823  1.00 37.13    -0.348 OA
BRANCH  22  23
HETATM   23  C1  UAP C   4      35.999  62.958  24.632  1.00 39.64     0.294 C 
HETATM   24  C2  UAP C   4      35.818  62.227  25.950  1.00 38.70     0.228 C 
HETATM   25  C3  UAP C   4      36.066  60.733  25.758  1.00 38.51     0.156 C 
HETATM   26  C4  UAP C   4      35.430  60.139  24.417  1.00 38.14     0.077 C 
HETATM   27  C5  UAP C   4      34.944  61.102  23.522  1.00 38.51     0.228 C 
HETATM   28  O5  UAP C   4      34.985  62.543  23.727  1.00 37.46    -0.343 OA
BRANCH  24  29
HETATM   29  O2  UAP C   4      36.794  62.707  26.931  1.00 40.54    -0.244 OA
BRANCH  29  30
HETATM   30  S   UAP C   4      38.232  62.018  27.069  1.00 40.49     0.252 S 
HETATM   31  O1S UAP C   4      38.176  61.145  28.251  1.00 40.89    -0.572 OA
HETATM   32  O2S UAP C   4      39.208  63.104  27.243  1.00 37.88    -0.572 OA
HETATM   33  O3S UAP C   4      38.468  61.256  25.832  1.00 37.47    -0.572 OA
ENDBRANCH  29  30
ENDBRANCH  24  29
BRANCH  25  34
HETATM   34  O3  UAP C   4      35.544  60.031  26.875  1.00 38.58    -0.393 OA
ATOM     35  H3  UAP C   4      36.186  60.043  27.575  1.00  0.00     0.210 HD
ENDBRANCH  25  34
BRANCH  27  36
HETATM   36  C6  UAP C   4      34.281  60.739  22.238  1.00 37.96     0.203 C 
HETATM   37  O6A UAP C   4      33.274  60.006  22.282  1.00 40.05    -0.646 OA
HETATM   38  O6B UAP C   4      34.766  61.183  21.176  1.00 36.71    -0.646 OA
ENDBRANCH  27  36
ENDBRANCH  22  23
ENDBRANCH  11  22
BRANCH  12  39
HETATM   39  C6  SGN C   3      38.683  65.219  24.508  1.00 42.65     0.227 C 
BRANCH  39  40
HETATM   40  O6  SGN C   3      39.796  66.007  24.035  1.00 51.09    -0.254 OA
BRANCH  40  41
HETATM   41  S2  SGN C   3      40.982  65.205  23.329  1.00 54.80     0.251 S 
HETATM   42  O4S SGN C   3      41.118  63.914  24.026  1.00 54.99    -0.572 OA
HETATM   43  O5S SGN C   3      42.209  66.045  23.471  1.00 53.99    -0.572 OA
HETATM   44  O6S SGN C   3      40.600  65.028  21.934  1.00 55.43    -0.572 OA
ENDBRANCH  40  41
ENDBRANCH  39  40
ENDBRANCH  12  39
ENDBRANCH   7   8
ENDBRANCH   4   7
BRANCH   3  45
HETATM   45  O3  IDS C   2      39.448  69.947  23.384  1.00 39.65    -0.390 OA
ATOM     46  H3  IDS C   2      39.373  69.340  24.110  1.00  0.00     0.210 HD
ENDBRANCH   3  45
BRANCH   5  47
HETATM   47  C6  IDS C   2      34.626  70.794  24.182  1.00 36.10     0.206 C 
HETATM   48  O6A IDS C   2      33.593  70.789  23.477  1.00 32.44    -0.646 OA
HETATM   49  O6B IDS C   2      34.631  70.594  25.421  1.00 33.44    -0.646 OA
ENDBRANCH   5  47
BRANCH   2  50
HETATM   50  O2  IDS C   2      39.220  71.431  21.033  1.00 43.59    -0.244 OA
BRANCH  50  51
HETATM   51  S   IDS C   2      39.225  70.347  19.862  1.00 44.11     0.252 S 
HETATM   52  O1S IDS C   2      37.935  70.512  19.110  1.00 44.48    -0.572 OA
HETATM   53  O2S IDS C   2      39.330  69.018  20.502  1.00 44.29    -0.572 OA
HETATM   54  O3S IDS C   2      40.378  70.634  19.027  1.00 44.74    -0.572 OA
ENDBRANCH  50  51
ENDBRANCH   2  50
BRANCH   1  55
HETATM   55  O4  SGN C   1      36.544  72.972  21.139  1.00 44.73    -0.348 OA
BRANCH  55  56
HETATM   56  C4  SGN C   1      35.753  73.377  20.001  1.00 48.25     0.186 C 
HETATM   57  C3  SGN C   1      34.367  73.837  20.469  1.00 48.43     0.178 C 
HETATM   58  C2  SGN C   1      33.580  74.412  19.292  1.00 48.58     0.181 C 
HETATM   59  C1  SGN C   1      34.369  75.501  18.567  1.00 50.40     0.283 C 
HETATM   60  O5  SGN C   1      35.646  74.996  18.160  1.00 50.82    -0.349 OA
HETATM   61  C5  SGN C   1      36.452  74.536  19.270  1.00 51.58     0.181 C 
BRANCH  57  62
HETATM   62  O3  SGN C   1      33.653  72.741  21.019  1.00 46.09    -0.391 OA
ATOM     63  H3  SGN C   1      33.246  73.009  21.834  1.00  0.00     0.210 HD
ENDBRANCH  57  62
BRANCH  58  64
HETATM   64  N2  SGN C   1      32.313  74.949  19.745  1.00 48.56    -0.289 N 
ATOM     65  H2  SGN C   1      32.247  75.761  20.358  1.00  0.00     0.175 HD
BRANCH  64  66
HETATM   66  S1  SGN C   1      30.983  74.139  19.186  1.00 47.67     0.205 S 
HETATM   67  O1S SGN C   1      31.462  72.834  18.680  1.00 47.59    -0.578 OA
HETATM   68  O2S SGN C   1      30.430  74.984  18.123  1.00 48.55    -0.578 OA
HETATM   69  O3S SGN C   1      30.062  73.996  20.334  1.00 47.08    -0.578 OA
ENDBRANCH  64  66
ENDBRANCH  58  64
BRANCH  59  70
HETATM   70  O1  SGN C   1      34.568  76.582  19.412  1.00 51.36    -0.369 OA
ATOM     71  H1  SGN C   1      34.010  76.501  20.177  1.00  0.00     0.212 HD
ENDBRANCH  59  70
BRANCH  61  72
HETATM   72  C6  SGN C   1      37.790  74.140  18.697  1.00 55.48     0.227 C 
BRANCH  72  73
HETATM   73  O6  SGN C   1      38.834  74.912  19.330  1.00 61.59    -0.254 OA
BRANCH  73  74
HETATM   74  S2  SGN C   1      40.282  74.748  18.685  1.00 65.98     0.251 S 
HETATM   75  O4S SGN C   1      41.244  74.393  19.821  1.00 65.09    -0.572 OA
HETATM   76  O5S SGN C   1      40.611  76.024  18.077  1.00 65.58    -0.572 OA
HETATM   77  O6S SGN C   1      40.186  73.606  17.625  1.00 65.84    -0.572 OA
ENDBRANCH  73  74
ENDBRANCH  72  73
ENDBRANCH  61  72
ENDBRANCH  55  56
ENDBRANCH   1  55
TORSDOF 27
ENDMDL
MODEL 38
REMARK VINA RESULT:      -5.8      3.060      4.726
REMARK  27 active torsions:
REMARK  status: ('A' for Active; 'I' for Inactive)
REMARK    1  A    between atoms: C1_1  and  O1_2 
REMARK    2  A    between atoms: S1_5  and  N2_7 
REMARK    3  A    between atoms: C2_6  and  N2_7 
REMARK    4  A    between atoms: S2_10  and  O6_22 
REMARK    5  A    between atoms: C3_11  and  O3_12 
REMARK    6  A    between atoms: C4_15  and  O4_16 
REMARK    7  A    between atoms: O4_16  and  C1_24 
REMARK    8  A    between atoms: C5_18  and  C6_21 
REMARK    9  A    between atoms: C6_21  and  O6_22 
REMARK   10  A    between atoms: C2_26  and  O2_27 
REMARK   11  A    between atoms: O2_27  and  S_40 
REMARK   12  A    between atoms: C3_29  and  O3_30 
REMARK   13  A    between atoms: C4_33  and  O4_34 
REMARK   14  A    between atoms: O4_34  and  C1_41 
REMARK   15  A    between atoms: C5_35  and  C6_37 
REMARK   16  A    between atoms: S1_43  and  N2_45 
REMARK   17  A    between atoms: C2_44  and  N2_45 
REMARK   18  A    between atoms: S2_48  and  O6_60 
REMARK   19  A    between atoms: C3_49  and  O3_50 
REMARK   20  A    between atoms: C4_53  and  O4_54 
REMARK   21  A    between atoms: O4_54  and  C1_62 
REMARK   22  A    between atoms: C5_56  and  C6_59 
REMARK   23  A    between atoms: C6_59  and  O6_60 
REMARK   24  A    between atoms: C2_64  and  O2_65 
REMARK   25  A    between atoms: O2_65  and  S_77 
REMARK   26  A    between atoms: C3_67  and  O3_68 
REMARK   27  A    between atoms: C5_72  and  C6_74 
ROOT
HETATM    1  C1  IDS C   2      30.689  84.548  11.898  1.00 40.81     0.294 C 
HETATM    2  C2  IDS C   2      31.223  84.202  10.506  1.00 40.20     0.231 C 
HETATM    3  C3  IDS C   2      31.812  82.795  10.478  1.00 39.01     0.185 C 
HETATM    4  C4  IDS C   2      32.979  82.665  11.477  1.00 37.65     0.195 C 
HETATM    5  C5  IDS C   2      32.877  83.762  12.544  1.00 35.99     0.257 C 
HETATM    6  O5  IDS C   2      31.493  83.937  12.931  1.00 39.00    -0.340 OA
ENDROOT
BRANCH   4   7
HETATM    7  O4  IDS C   2      32.946  81.358  12.104  1.00 35.98    -0.348 OA
BRANCH   7   8
HETATM    8  C1  SGN C   3      31.838  80.556  11.798  1.00 35.40     0.287 C 
HETATM    9  C2  SGN C   3      31.156  80.078  13.092  1.00 33.71     0.182 C 
HETATM   10  C3  SGN C   3      31.973  79.004  13.819  1.00 35.79     0.178 C 
HETATM   11  C4  SGN C   3      32.465  77.908  12.858  1.00 36.62     0.186 C 
HETATM   12  C5  SGN C   3      33.111  78.540  11.631  1.00 39.32     0.181 C 
HETATM   13  O5  SGN C   3      32.188  79.442  10.995  1.00 37.58    -0.349 OA
BRANCH   9  14
HETATM   14  N2  SGN C   3      30.970  81.203  13.983  1.00 29.28    -0.289 N 
ATOM     15  H2  SGN C   3      31.761  81.765  14.295  1.00  0.00     0.175 HD
BRANCH  14  16
HETATM   16  S1  SGN C   3      29.430  81.542  14.477  1.00 27.84     0.205 S 
HETATM   17  O1S SGN C   3      28.731  81.911  13.260  1.00 27.65    -0.578 OA
HETATM   18  O2S SGN C   3      29.568  82.682  15.431  1.00 27.72    -0.578 OA
HETATM   19  O3S SGN C   3      28.839  80.332  15.129  1.00 28.50    -0.578 OA
ENDBRANCH  14  16
ENDBRANCH   9  14
BRANCH  10  20
HETATM   20  O3  SGN C   3      31.183  78.426  14.856  1.00 34.89    -0.391 OA
ATOM     21  H3  SGN C   3      30.365  78.904  14.934  1.00  0.00     0.210 HD
ENDBRANCH  10  20
BRANCH  11  22
HETATM   22  O4  SGN C   3      33.449  77.099  13.527  1.00 37.13    -0.348 OA
BRANCH  22  23
HETATM   23  C1  UAP C   4      33.076  75.785  13.762  1.00 39.64     0.294 C 
HETATM   24  C2  UAP C   4      32.367  75.673  15.100  1.00 38.70     0.228 C 
HETATM   25  C3  UAP C   4      32.045  74.213  15.401  1.00 38.51     0.156 C 
HETATM   26  C4  UAP C   4      31.505  73.395  14.138  1.00 38.14     0.077 C 
HETATM   27  C5  UAP C   4      31.621  74.066  12.912  1.00 38.51     0.228 C 
HETATM   28  O5  UAP C   4      32.181  75.397  12.728  1.00 37.46    -0.343 OA
BRANCH  24  29
HETATM   29  O2  UAP C   4      33.239  76.157  16.172  1.00 40.54    -0.244 OA
BRANCH  29  30
HETATM   30  S   UAP C   4      32.627  76.743  17.531  1.00 40.49     0.252 S 
HETATM   31  O1S UAP C   4      31.233  77.113  17.248  1.00 40.89    -0.572 OA
HETATM   32  O2S UAP C   4      33.438  77.916  17.889  1.00 37.88    -0.572 OA
HETATM   33  O3S UAP C   4      32.720  75.678  18.542  1.00 37.47    -0.572 OA
ENDBRANCH  29  30
ENDBRANCH  24  29
BRANCH  25  34
HETATM   34  O3  UAP C   4      31.080  74.158  16.441  1.00 38.58    -0.393 OA
ATOM     35  H3  UAP C   4      31.471  74.487  17.242  1.00  0.00     0.210 HD
ENDBRANCH  25  34
BRANCH  27  36
HETATM   36  C6  UAP C   4      31.137  73.481  11.630  1.00 37.96     0.203 C 
HETATM   37  O6A UAP C   4      31.943  73.389  10.683  1.00 40.05    -0.646 OA
HETATM   38  O6B UAP C   4      29.945  73.112  11.562  1.00 36.71    -0.646 OA
ENDBRANCH  27  36
ENDBRANCH  22  23
ENDBRANCH  11  22
BRANCH  12  39
HETATM   39  C6  SGN C   3      33.552  77.551  10.588  1.00 42.65     0.227 C 
BRANCH  39  40
HETATM   40  O6  SGN C   3      32.840  77.910   9.384  1.00 51.09    -0.254 OA
BRANCH  40  41
HETATM   41  S2  SGN C   3      31.905  76.782   8.751  1.00 54.80     0.251 S 
HETATM   42  O4S SGN C   3      32.763  75.628   8.427  1.00 54.99    -0.572 OA
HETATM   43  O5S SGN C   3      31.288  77.376   7.527  1.00 53.99    -0.572 OA
HETATM   44  O6S SGN C   3      30.906  76.447   9.758  1.00 55.43    -0.572 OA
ENDBRANCH  40  41
ENDBRANCH  39  40
ENDBRANCH  12  39
ENDBRANCH   7   8
ENDBRANCH   4   7
BRANCH   3  45
HETATM   45  O3  IDS C   2      32.265  82.496   9.165  1.00 39.65    -0.390 OA
ATOM     46  H3  IDS C   2      33.117  82.079   9.211  1.00  0.00     0.210 HD
ENDBRANCH   3  45
BRANCH   5  47
HETATM   47  C6  IDS C   2      33.687  83.508  13.808  1.00 36.10     0.206 C 
HETATM   48  O6A IDS C   2      34.933  83.574  13.722  1.00 32.44    -0.646 OA
HETATM   49  O6B IDS C   2      33.069  83.260  14.872  1.00 33.44    -0.646 OA
ENDBRANCH   5  47
BRANCH   2  50
HETATM   50  O2  IDS C   2      30.137  84.261   9.535  1.00 43.59    -0.244 OA
BRANCH  50  51
HETATM   51  S   IDS C   2      30.308  85.138   8.213  1.00 44.11     0.252 S 
HETATM   52  O1S IDS C   2      28.925  85.498   7.748  1.00 44.48    -0.572 OA
HETATM   53  O2S IDS C   2      31.026  84.302   7.228  1.00 44.29    -0.572 OA
HETATM   54  O3S IDS C   2      31.076  86.314   8.583  1.00 44.74    -0.572 OA
ENDBRANCH  50  51
ENDBRANCH   2  50
BRANCH   1  55
HETATM   55  O4  SGN C   1      30.714  85.925  12.074  1.00 44.73    -0.348 OA
BRANCH  55  56
HETATM   56  C4  SGN C   1      29.618  86.528  12.796  1.00 48.25     0.186 C 
HETATM   57  C3  SGN C   1      29.990  86.674  14.277  1.00 48.43     0.178 C 
HETATM   58  C2  SGN C   1      28.901  87.450  15.017  1.00 48.58     0.181 C 
HETATM   59  C1  SGN C   1      28.597  88.781  14.332  1.00 50.40     0.283 C 
HETATM   60  O5  SGN C   1      28.257  88.562  12.957  1.00 50.82    -0.349 OA
HETATM   61  C5  SGN C   1      29.314  87.917  12.210  1.00 51.58     0.181 C 
BRANCH  57  62
HETATM   62  O3  SGN C   1      30.135  85.392  14.868  1.00 46.09    -0.391 OA
ATOM     63  H3  SGN C   1      31.010  85.312  15.232  1.00  0.00     0.210 HD
ENDBRANCH  57  62
BRANCH  58  64
HETATM   64  N2  SGN C   1      29.295  87.689  16.390  1.00 48.56    -0.289 N 
ATOM     65  H2  SGN C   1      30.140  88.201  16.640  1.00  0.00     0.175 HD
BRANCH  64  66
HETATM   66  S1  SGN C   1      28.262  87.061  17.520  1.00 47.67     0.205 S 
HETATM   67  O1S SGN C   1      28.920  87.226  18.835  1.00 47.59    -0.578 OA
HETATM   68  O2S SGN C   1      28.090  85.652  17.152  1.00 48.55    -0.578 OA
HETATM   69  O3S SGN C   1      27.004  87.832  17.418  1.00 47.08    -0.578 OA
ENDBRANCH  64  66
ENDBRANCH  58  64
BRANCH  59  70
HETATM   70  O1  SGN C   1      29.710  89.606  14.388  1.00 51.36    -0.369 OA
ATOM     71  H1  SGN C   1      29.893  89.842  15.289  1.00  0.00     0.212 HD
ENDBRANCH  59  70
BRANCH  61  72
HETATM   72  C6  SGN C   1      28.852  87.854  10.776  1.00 55.48     0.227 C 
BRANCH  72  73
HETATM   73  O6  SGN C   1      27.884  86.793  10.626  1.00 61.59    -0.254 OA
BRANCH  73  74
HETATM   74  S2  SGN C   1      26.529  87.210   9.897  1.00 65.98     0.251 S 
HETATM   75  O4S SGN C   1      25.693  87.992  10.913  1.00 65.09    -0.572 OA
HETATM   76  O5S SGN C   1      25.878  85.977   9.496  1.00 65.58    -0.572 OA
HETATM   77  O6S SGN C   1      26.920  88.088   8.667  1.00 65.84    -0.572 OA
ENDBRANCH  73  74
ENDBRANCH  72  73
ENDBRANCH  61  72
ENDBRANCH  55  56
ENDBRANCH   1  55
TORSDOF 27
ENDMDL
MODEL 39
REMARK VINA RESULT:      -5.8      5.965     12.724
REMARK  27 active torsions:
REMARK  status: ('A' for Active; 'I' for Inactive)
REMARK    1  A    between atoms: C1_1  and  O1_2 
REMARK    2  A    between atoms: S1_5  and  N2_7 
REMARK    3  A    between atoms: C2_6  and  N2_7 
REMARK    4  A    between atoms: S2_10  and  O6_22 
REMARK    5  A    between atoms: C3_11  and  O3_12 
REMARK    6  A    between atoms: C4_15  and  O4_16 
REMARK    7  A    between atoms: O4_16  and  C1_24 
REMARK    8  A    between atoms: C5_18  and  C6_21 
REMARK    9  A    between atoms: C6_21  and  O6_22 
REMARK   10  A    between atoms: C2_26  and  O2_27 
REMARK   11  A    between atoms: O2_27  and  S_40 
REMARK   12  A    between atoms: C3_29  and  O3_30 
REMARK   13  A    between atoms: C4_33  and  O4_34 
REMARK   14  A    between atoms: O4_34  and  C1_41 
REMARK   15  A    between atoms: C5_35  and  C6_37 
REMARK   16  A    between atoms: S1_43  and  N2_45 
REMARK   17  A    between atoms: C2_44  and  N2_45 
REMARK   18  A    between atoms: S2_48  and  O6_60 
REMARK   19  A    between atoms: C3_49  and  O3_50 
REMARK   20  A    between atoms: C4_53  and  O4_54 
REMARK   21  A    between atoms: O4_54  and  C1_62 
REMARK   22  A    between atoms: C5_56  and  C6_59 
REMARK   23  A    between atoms: C6_59  and  O6_60 
REMARK   24  A    between atoms: C2_64  and  O2_65 
REMARK   25  A    between atoms: O2_65  and  S_77 
REMARK   26  A    between atoms: C3_67  and  O3_68 
REMARK   27  A    between atoms: C5_72  and  C6_74 
ROOT
HETATM    1  C1  IDS C   2      25.977  82.800  13.219  1.00 40.81     0.294 C 
HETATM    2  C2  IDS C   2      25.835  81.278  13.303  1.00 40.20     0.231 C 
HETATM    3  C3  IDS C   2      24.662  80.790  12.457  1.00 39.01     0.185 C 
HETATM    4  C4  IDS C   2      23.337  81.415  12.936  1.00 37.65     0.195 C 
HETATM    5  C5  IDS C   2      23.622  82.694  13.734  1.00 35.99     0.257 C 
HETATM    6  O5  IDS C   2      24.687  83.439  13.096  1.00 39.00    -0.340 OA
ENDROOT
BRANCH   4   7
HETATM    7  O4  IDS C   2      22.496  81.719  11.795  1.00 35.98    -0.348 OA
BRANCH   7   8
HETATM    8  C1  SGN C   3      21.395  80.873  11.597  1.00 35.40     0.287 C 
HETATM    9  C2  SGN C   3      21.353  80.392  10.136  1.00 33.71     0.182 C 
HETATM   10  C3  SGN C   3      20.916  81.500   9.170  1.00 35.79     0.178 C 
HETATM   11  C4  SGN C   3      19.676  82.252   9.682  1.00 36.62     0.186 C 
HETATM   12  C5  SGN C   3      19.872  82.657  11.137  1.00 39.32     0.181 C 
HETATM   13  O5  SGN C   3      20.171  81.499  11.937  1.00 37.58    -0.349 OA
BRANCH   9  14
HETATM   14  N2  SGN C   3      22.664  79.923   9.744  1.00 29.28    -0.289 N 
ATOM     15  H2  SGN C   3      23.377  80.570   9.409  1.00  0.00     0.175 HD
BRANCH  14  16
HETATM   16  S1  SGN C   3      22.964  78.303   9.859  1.00 27.84     0.205 S 
HETATM   17  O1S SGN C   3      22.335  77.903  11.104  1.00 27.65    -0.578 OA
HETATM   18  O2S SGN C   3      24.451  78.182   9.899  1.00 27.72    -0.578 OA
HETATM   19  O3S SGN C   3      22.377  77.603   8.674  1.00 28.50    -0.578 OA
ENDBRANCH  14  16
ENDBRANCH   9  14
BRANCH  10  20
HETATM   20  O3  SGN C   3      20.652  80.935   7.888  1.00 34.89    -0.391 OA
ATOM     21  H3  SGN C   3      21.182  81.374   7.233  1.00  0.00     0.210 HD
ENDBRANCH  10  20
BRANCH  11  22
HETATM   22  O4  SGN C   3      19.488  83.443   8.897  1.00 37.13    -0.348 OA
BRANCH  22  23
HETATM   23  C1  UAP C   4      18.265  83.543   8.253  1.00 39.64     0.294 C 
HETATM   24  C2  UAP C   4      18.198  84.832   7.454  1.00 38.70     0.228 C 
HETATM   25  C3  UAP C   4      16.816  84.988   6.826  1.00 38.51     0.156 C 
HETATM   26  C4  UAP C   4      16.227  83.634   6.214  1.00 38.14     0.077 C 
HETATM   27  C5  UAP C   4      16.952  82.479   6.539  1.00 38.51     0.228 C 
HETATM   28  O5  UAP C   4      18.151  82.439   7.365  1.00 37.46    -0.343 OA
BRANCH  24  29
HETATM   29  O2  UAP C   4      18.408  85.982   8.336  1.00 40.54    -0.244 OA
BRANCH  29  30
HETATM   30  S   UAP C   4      19.527  87.079   8.010  1.00 40.49     0.252 S 
HETATM   31  O1S UAP C   4      19.260  87.573   6.652  1.00 40.89    -0.572 OA
HETATM   32  O2S UAP C   4      20.827  86.396   8.093  1.00 37.88    -0.572 OA
HETATM   33  O3S UAP C   4      19.397  88.142   9.018  1.00 37.47    -0.572 OA
ENDBRANCH  29  30
ENDBRANCH  24  29
BRANCH  25  34
HETATM   34  O3  UAP C   4      16.881  85.974   5.808  1.00 38.58    -0.393 OA
ATOM     35  H3  UAP C   4      17.391  86.711   6.123  1.00  0.00     0.210 HD
ENDBRANCH  25  34
BRANCH  27  36
HETATM   36  C6  UAP C   4      16.581  81.130   6.028  1.00 37.96     0.203 C 
HETATM   37  O6A UAP C   4      15.403  80.944   5.661  1.00 40.05    -0.646 OA
HETATM   38  O6B UAP C   4      17.464  80.247   5.993  1.00 36.71    -0.646 OA
ENDBRANCH  27  36
ENDBRANCH  22  23
ENDBRANCH  11  22
BRANCH  12  39
HETATM   39  C6  SGN C   3      18.679  83.328  11.758  1.00 42.65     0.227 C 
BRANCH  39  40
HETATM   40  O6  SGN C   3      19.035  84.721  11.884  1.00 51.09    -0.254 OA
BRANCH  40  41
HETATM   41  S2  SGN C   3      18.588  85.448  13.233  1.00 54.80     0.251 S 
HETATM   42  O4S SGN C   3      19.657  86.394  13.600  1.00 54.99    -0.572 OA
HETATM   43  O5S SGN C   3      18.420  84.376  14.259  1.00 53.99    -0.572 OA
HETATM   44  O6S SGN C   3      17.334  86.133  12.948  1.00 55.43    -0.572 OA
ENDBRANCH  40  41
ENDBRANCH  39  40
ENDBRANCH  12  39
ENDBRANCH   7   8
ENDBRANCH   4   7
BRANCH   3  45
HETATM   45  O3  IDS C   2      24.582  79.373  12.531  1.00 39.65    -0.390 OA
ATOM     46  H3  IDS C   2      23.700  79.094  12.316  1.00  0.00     0.210 HD
ENDBRANCH   3  45
BRANCH   5  47
HETATM   47  C6  IDS C   2      22.432  83.629  13.898  1.00 36.10     0.206 C 
HETATM   48  O6A IDS C   2      21.581  83.338  14.767  1.00 32.44    -0.646 OA
HETATM   49  O6B IDS C   2      22.370  84.648  13.169  1.00 33.44    -0.646 OA
ENDBRANCH   5  47
BRANCH   2  50
HETATM   50  O2  IDS C   2      27.050  80.644  12.807  1.00 43.59    -0.244 OA
BRANCH  50  51
HETATM   51  S   IDS C   2      27.857  79.642  13.752  1.00 44.11     0.252 S 
HETATM   52  O1S IDS C   2      26.954  78.471  14.016  1.00 44.48    -0.572 OA
HETATM   53  O2S IDS C   2      28.187  80.382  14.988  1.00 44.29    -0.572 OA
HETATM   54  O3S IDS C   2      29.051  79.249  13.025  1.00 44.74    -0.572 OA
ENDBRANCH  50  51
ENDBRANCH   2  50
BRANCH   1  55
HETATM   55  O4  SGN C   1      26.595  83.271  14.369  1.00 44.73    -0.348 OA
BRANCH  55  56
HETATM   56  C4  SGN C   1      27.130  84.613  14.341  1.00 48.25     0.186 C 
HETATM   57  C3  SGN C   1      27.712  84.968  15.714  1.00 48.43     0.178 C 
HETATM   58  C2  SGN C   1      28.418  86.322  15.650  1.00 48.58     0.181 C 
HETATM   59  C1  SGN C   1      29.448  86.366  14.523  1.00 50.40     0.283 C 
HETATM   60  O5  SGN C   1      28.829  86.026  13.276  1.00 50.82    -0.349 OA
HETATM   61  C5  SGN C   1      28.239  84.705  13.280  1.00 51.58     0.181 C 
BRANCH  57  62
HETATM   62  O3  SGN C   1      26.674  85.025  16.680  1.00 46.09    -0.391 OA
ATOM     63  H3  SGN C   1      25.834  84.956  16.241  1.00  0.00     0.210 HD
ENDBRANCH  57  62
BRANCH  58  64
HETATM   64  N2  SGN C   1      29.065  86.615  16.913  1.00 48.56    -0.289 N 
ATOM     65  H2  SGN C   1      29.873  86.093  17.252  1.00  0.00     0.175 HD
BRANCH  64  66
HETATM   66  S1  SGN C   1      28.388  87.865  17.759  1.00 47.67     0.205 S 
HETATM   67  O1S SGN C   1      26.988  87.984  17.294  1.00 47.59    -0.578 OA
HETATM   68  O2S SGN C   1      29.192  89.044  17.424  1.00 48.55    -0.578 OA
HETATM   69  O3S SGN C   1      28.477  87.504  19.191  1.00 47.08    -0.578 OA
ENDBRANCH  64  66
ENDBRANCH  58  64
BRANCH  59  70
HETATM   70  O1  SGN C   1      30.464  85.457  14.777  1.00 51.36    -0.369 OA
ATOM     71  H1  SGN C   1      30.093  84.615  15.012  1.00  0.00     0.212 HD
ENDBRANCH  59  70
BRANCH  61  72
HETATM   72  C6  SGN C   1      27.730  84.457  11.882  1.00 55.48     0.227 C 
BRANCH  72  73
HETATM   73  O6  SGN C   1      27.037  85.630  11.405  1.00 61.59    -0.254 OA
BRANCH  73  74
HETATM   74  S2  SGN C   1      27.388  86.063   9.912  1.00 65.98     0.251 S 
HETATM   75  O4S SGN C   1      28.857  86.491   9.900  1.00 65.09    -0.572 OA
HETATM   76  O5S SGN C   1      26.501  87.164   9.581  1.00 65.58    -0.572 OA
HETATM   77  O6S SGN C   1      27.136  84.820   9.001  1.00 65.84    -0.572 OA
ENDBRANCH  73  74
ENDBRANCH  72  73
ENDBRANCH  61  72
ENDBRANCH  55  56
ENDBRANCH   1  55
TORSDOF 27
ENDMDL
MODEL 40
REMARK VINA RESULT:      -5.7      6.216     12.988
REMARK  27 active torsions:
REMARK  status: ('A' for Active; 'I' for Inactive)
REMARK    1  A    between atoms: C1_1  and  O1_2 
REMARK    2  A    between atoms: S1_5  and  N2_7 
REMARK    3  A    between atoms: C2_6  and  N2_7 
REMARK    4  A    between atoms: S2_10  and  O6_22 
REMARK    5  A    between atoms: C3_11  and  O3_12 
REMARK    6  A    between atoms: C4_15  and  O4_16 
REMARK    7  A    between atoms: O4_16  and  C1_24 
REMARK    8  A    between atoms: C5_18  and  C6_21 
REMARK    9  A    between atoms: C6_21  and  O6_22 
REMARK   10  A    between atoms: C2_26  and  O2_27 
REMARK   11  A    between atoms: O2_27  and  S_40 
REMARK   12  A    between atoms: C3_29  and  O3_30 
REMARK   13  A    between atoms: C4_33  and  O4_34 
REMARK   14  A    between atoms: O4_34  and  C1_41 
REMARK   15  A    between atoms: C5_35  and  C6_37 
REMARK   16  A    between atoms: S1_43  and  N2_45 
REMARK   17  A    between atoms: C2_44  and  N2_45 
REMARK   18  A    between atoms: S2_48  and  O6_60 
REMARK   19  A    between atoms: C3_49  and  O3_50 
REMARK   20  A    between atoms: C4_53  and  O4_54 
REMARK   21  A    between atoms: O4_54  and  C1_62 
REMARK   22  A    between atoms: C5_56  and  C6_59 
REMARK   23  A    between atoms: C6_59  and  O6_60 
REMARK   24  A    between atoms: C2_64  and  O2_65 
REMARK   25  A    between atoms: O2_65  and  S_77 
REMARK   26  A    between atoms: C3_67  and  O3_68 
REMARK   27  A    between atoms: C5_72  and  C6_74 
ROOT
HETATM    1  C1  IDS C   2      25.531  82.774  13.323  1.00 40.81     0.294 C 
HETATM    2  C2  IDS C   2      25.209  81.283  13.451  1.00 40.20     0.231 C 
HETATM    3  C3  IDS C   2      23.937  80.930  12.685  1.00 39.01     0.185 C 
HETATM    4  C4  IDS C   2      22.729  81.723  13.224  1.00 37.65     0.195 C 
HETATM    5  C5  IDS C   2      23.216  82.969  13.974  1.00 35.99     0.257 C 
HETATM    6  O5  IDS C   2      24.324  83.566  13.259  1.00 39.00    -0.340 OA
ENDROOT
BRANCH   4   7
HETATM    7  O4  IDS C   2      21.866  82.110  12.126  1.00 35.98    -0.348 OA
BRANCH   7   8
HETATM    8  C1  SGN C   3      20.622  81.465  12.063  1.00 35.40     0.287 C 
HETATM    9  C2  SGN C   3      20.385  80.910  10.647  1.00 33.71     0.182 C 
HETATM   10  C3  SGN C   3      20.076  82.016   9.632  1.00 35.79     0.178 C 
HETATM   11  C4  SGN C   3      19.029  83.009  10.165  1.00 36.62     0.186 C 
HETATM   12  C5  SGN C   3      19.404  83.462  11.570  1.00 39.32     0.181 C 
HETATM   13  O5  SGN C   3      19.555  82.321  12.433  1.00 37.58    -0.349 OA
BRANCH   9  14
HETATM   14  N2  SGN C   3      21.560  80.190  10.208  1.00 29.28    -0.289 N 
ATOM     15  H2  SGN C   3      22.411  80.683   9.939  1.00  0.00     0.175 HD
BRANCH  14  16
HETATM   16  S1  SGN C   3      21.473  78.541  10.157  1.00 27.84     0.205 S 
HETATM   17  O1S SGN C   3      21.411  78.136  11.549  1.00 27.65    -0.578 OA
HETATM   18  O2S SGN C   3      22.732  78.103   9.484  1.00 27.72    -0.578 OA
HETATM   19  O3S SGN C   3      20.255  78.130   9.390  1.00 28.50    -0.578 OA
ENDBRANCH  14  16
ENDBRANCH   9  14
BRANCH  10  20
HETATM   20  O3  SGN C   3      19.620  81.431   8.415  1.00 34.89    -0.391 OA
ATOM     21  H3  SGN C   3      20.200  80.719   8.169  1.00  0.00     0.210 HD
ENDBRANCH  10  20
BRANCH  11  22
HETATM   22  O4  SGN C   3      18.993  84.164   9.307  1.00 37.13    -0.348 OA
BRANCH  22  23
HETATM   23  C1  UAP C   4      17.770  84.421   8.709  1.00 39.64     0.294 C 
HETATM   24  C2  UAP C   4      17.759  83.884   7.289  1.00 38.70     0.228 C 
HETATM   25  C3  UAP C   4      16.449  84.254   6.600  1.00 38.51     0.156 C 
HETATM   26  C4  UAP C   4      15.159  84.088   7.529  1.00 38.14     0.077 C 
HETATM   27  C5  UAP C   4      15.438  83.850   8.883  1.00 38.51     0.228 C 
HETATM   28  O5  UAP C   4      16.769  83.754   9.466  1.00 37.46    -0.343 OA
BRANCH  24  29
HETATM   29  O2  UAP C   4      18.844  84.489   6.514  1.00 40.54    -0.244 OA
BRANCH  29  30
HETATM   30  S   UAP C   4      19.873  83.582   5.688  1.00 40.49     0.252 S 
HETATM   31  O1S UAP C   4      21.080  83.442   6.515  1.00 40.89    -0.572 OA
HETATM   32  O2S UAP C   4      20.154  84.295   4.434  1.00 37.88    -0.572 OA
HETATM   33  O3S UAP C   4      19.214  82.288   5.452  1.00 37.47    -0.572 OA
ENDBRANCH  29  30
ENDBRANCH  24  29
BRANCH  25  34
HETATM   34  O3  UAP C   4      16.296  83.452   5.439  1.00 38.58    -0.393 OA
ATOM     35  H3  UAP C   4      15.691  83.880   4.845  1.00  0.00     0.210 HD
ENDBRANCH  25  34
BRANCH  27  36
HETATM   36  C6  UAP C   4      14.367  83.629   9.894  1.00 37.96     0.203 C 
HETATM   37  O6A UAP C   4      13.229  84.079   9.655  1.00 40.05    -0.646 OA
HETATM   38  O6B UAP C   4      14.658  83.006  10.937  1.00 36.71    -0.646 OA
ENDBRANCH  27  36
ENDBRANCH  22  23
ENDBRANCH  11  22
BRANCH  12  39
HETATM   39  C6  SGN C   3      18.397  84.373  12.215  1.00 42.65     0.227 C 
BRANCH  39  40
HETATM   40  O6  SGN C   3      19.163  85.293  13.022  1.00 51.09    -0.254 OA
BRANCH  40  41
HETATM   41  S2  SGN C   3      19.077  86.834  12.615  1.00 54.80     0.251 S 
HETATM   42  O4S SGN C   3      17.678  87.261  12.800  1.00 54.99    -0.572 OA
HETATM   43  O5S SGN C   3      19.499  86.921  11.185  1.00 53.99    -0.572 OA
HETATM   44  O6S SGN C   3      19.983  87.556  13.498  1.00 55.43    -0.572 OA
ENDBRANCH  40  41
ENDBRANCH  39  40
ENDBRANCH  12  39
ENDBRANCH   7   8
ENDBRANCH   4   7
BRANCH   3  45
HETATM   45  O3  IDS C   2      23.688  79.535  12.798  1.00 39.65    -0.390 OA
ATOM     46  H3  IDS C   2      24.289  79.156  13.427  1.00  0.00     0.210 HD
ENDBRANCH   3  45
BRANCH   5  47
HETATM   47  C6  IDS C   2      22.161  84.047  14.183  1.00 36.10     0.206 C 
HETATM   48  O6A IDS C   2      21.301  83.852  15.069  1.00 32.44    -0.646 OA
HETATM   49  O6B IDS C   2      22.215  85.079  13.472  1.00 33.44    -0.646 OA
ENDBRANCH   5  47
BRANCH   2  50
HETATM   50  O2  IDS C   2      26.305  80.495  12.903  1.00 43.59    -0.244 OA
BRANCH  50  51
HETATM   51  S   IDS C   2      27.037  79.416  13.822  1.00 44.11     0.252 S 
HETATM   52  O1S IDS C   2      28.421  79.237  13.264  1.00 44.48    -0.572 OA
HETATM   53  O2S IDS C   2      26.242  78.172  13.748  1.00 44.29    -0.572 OA
HETATM   54  O3S IDS C   2      27.064  79.958  15.169  1.00 44.74    -0.572 OA
ENDBRANCH  50  51
ENDBRANCH   2  50
BRANCH   1  55
HETATM   55  O4  SGN C   1      26.270  83.184  14.425  1.00 44.73    -0.348 OA
BRANCH  55  56
HETATM   56  C4  SGN C   1      26.893  84.486  14.367  1.00 48.25     0.186 C 
HETATM   57  C3  SGN C   1      27.476  84.843  15.739  1.00 48.43     0.178 C 
HETATM   58  C2  SGN C   1      28.271  86.146  15.649  1.00 48.58     0.181 C 
HETATM   59  C1  SGN C   1      29.318  86.088  14.539  1.00 50.40     0.283 C 
HETATM   60  O5  SGN C   1      28.698  85.752  13.292  1.00 50.82    -0.349 OA
HETATM   61  C5  SGN C   1      28.022  84.474  13.323  1.00 51.58     0.181 C 
BRANCH  57  62
HETATM   62  O3  SGN C   1      26.430  84.997  16.685  1.00 46.09    -0.391 OA
ATOM     63  H3  SGN C   1      26.110  85.892  16.656  1.00  0.00     0.210 HD
ENDBRANCH  57  62
BRANCH  58  64
HETATM   64  N2  SGN C   1      28.917  86.433  16.913  1.00 48.56    -0.289 N 
ATOM     65  H2  SGN C   1      29.665  85.854  17.293  1.00  0.00     0.175 HD
BRANCH  64  66
HETATM   66  S1  SGN C   1      28.341  87.776  17.689  1.00 47.67     0.205 S 
HETATM   67  O1S SGN C   1      26.922  87.919  17.297  1.00 47.59    -0.578 OA
HETATM   68  O2S SGN C   1      29.170  88.888  17.211  1.00 48.55    -0.578 OA
HETATM   69  O3S SGN C   1      28.504  87.529  19.139  1.00 47.08    -0.578 OA
ENDBRANCH  64  66
ENDBRANCH  58  64
BRANCH  59  70
HETATM   70  O1  SGN C   1      30.268  85.122  14.836  1.00 51.36    -0.369 OA
ATOM     71  H1  SGN C   1      29.855  84.269  14.892  1.00  0.00     0.212 HD
ENDBRANCH  59  70
BRANCH  61  72
HETATM   72  C6  SGN C   1      27.519  84.218  11.924  1.00 55.48     0.227 C 
BRANCH  72  73
HETATM   73  O6  SGN C   1      28.342  83.215  11.291  1.00 61.59    -0.254 OA
BRANCH  73  74
HETATM   74  S2  SGN C   1      29.519  83.784  10.379  1.00 65.98     0.251 S 
HETATM   75  O4S SGN C   1      30.771  83.865  11.256  1.00 65.09    -0.572 OA
HETATM   76  O5S SGN C   1      29.092  85.094   9.922  1.00 65.58    -0.572 OA
HETATM   77  O6S SGN C   1      29.704  82.787   9.192  1.00 65.84    -0.572 OA
ENDBRANCH  73  74
ENDBRANCH  72  73
ENDBRANCH  61  72
ENDBRANCH  55  56
ENDBRANCH   1  55
TORSDOF 27
ENDMDL
MODEL 41
REMARK VINA RESULT:      -5.7      4.670     13.733
REMARK  27 active torsions:
REMARK  status: ('A' for Active; 'I' for Inactive)
REMARK    1  A    between atoms: C1_1  and  O1_2 
REMARK    2  A    between atoms: S1_5  and  N2_7 
REMARK    3  A    between atoms: C2_6  and  N2_7 
REMARK    4  A    between atoms: S2_10  and  O6_22 
REMARK    5  A    between atoms: C3_11  and  O3_12 
REMARK    6  A    between atoms: C4_15  and  O4_16 
REMARK    7  A    between atoms: O4_16  and  C1_24 
REMARK    8  A    between atoms: C5_18  and  C6_21 
REMARK    9  A    between atoms: C6_21  and  O6_22 
REMARK   10  A    between atoms: C2_26  and  O2_27 
REMARK   11  A    between atoms: O2_27  and  S_40 
REMARK   12  A    between atoms: C3_29  and  O3_30 
REMARK   13  A    between atoms: C4_33  and  O4_34 
REMARK   14  A    between atoms: O4_34  and  C1_41 
REMARK   15  A    between atoms: C5_35  and  C6_37 
REMARK   16  A    between atoms: S1_43  and  N2_45 
REMARK   17  A    between atoms: C2_44  and  N2_45 
REMARK   18  A    between atoms: S2_48  and  O6_60 
REMARK   19  A    between atoms: C3_49  and  O3_50 
REMARK   20  A    between atoms: C4_53  and  O4_54 
REMARK   21  A    between atoms: O4_54  and  C1_62 
REMARK   22  A    between atoms: C5_56  and  C6_59 
REMARK   23  A    between atoms: C6_59  and  O6_60 
REMARK   24  A    between atoms: C2_64  and  O2_65 
REMARK   25  A    between atoms: O2_65  and  S_77 
REMARK   26  A    between atoms: C3_67  and  O3_68 
REMARK   27  A    between atoms: C5_72  and  C6_74 
ROOT
HETATM    1  C1  IDS C   2      33.850  70.759  17.937  1.00 40.81     0.294 C 
HETATM    2  C2  IDS C   2      34.218  72.000  18.754  1.00 40.20     0.231 C 
HETATM    3  C3  IDS C   2      33.695  73.269  18.088  1.00 39.01     0.185 C 
HETATM    4  C4  IDS C   2      34.292  73.439  16.676  1.00 37.65     0.195 C 
HETATM    5  C5  IDS C   2      34.794  72.085  16.157  1.00 35.99     0.257 C 
HETATM    6  O5  IDS C   2      33.855  71.046  16.522  1.00 39.00    -0.340 OA
ENDROOT
BRANCH   4   7
HETATM    7  O4  IDS C   2      33.287  73.974  15.779  1.00 35.98    -0.348 OA
BRANCH   7   8
HETATM    8  C1  SGN C   3      31.956  73.657  16.085  1.00 35.40     0.287 C 
HETATM    9  C2  SGN C   3      31.060  73.890  14.856  1.00 33.71     0.182 C 
HETATM   10  C3  SGN C   3      30.839  75.380  14.570  1.00 35.79     0.178 C 
HETATM   11  C4  SGN C   3      30.475  76.162  15.844  1.00 36.62     0.186 C 
HETATM   12  C5  SGN C   3      31.450  75.821  16.964  1.00 39.32     0.181 C 
HETATM   13  O5  SGN C   3      31.469  74.400  17.188  1.00 37.58    -0.349 OA
BRANCH   9  14
HETATM   14  N2  SGN C   3      31.666  73.279  13.694  1.00 29.28    -0.289 N 
ATOM     15  H2  SGN C   3      32.642  73.453  13.454  1.00  0.00     0.175 HD
BRANCH  14  16
HETATM   16  S1  SGN C   3      30.722  72.288  12.769  1.00 27.84     0.205 S 
HETATM   17  O1S SGN C   3      30.153  71.343  13.712  1.00 27.65    -0.578 OA
HETATM   18  O2S SGN C   3      31.659  71.645  11.801  1.00 27.72    -0.578 OA
HETATM   19  O3S SGN C   3      29.674  73.103  12.078  1.00 28.50    -0.578 OA
ENDBRANCH  14  16
ENDBRANCH   9  14
BRANCH  10  20
HETATM   20  O3  SGN C   3      29.811  75.530  13.594  1.00 34.89    -0.391 OA
ATOM     21  H3  SGN C   3      29.337  74.712  13.506  1.00  0.00     0.210 HD
ENDBRANCH  10  20
BRANCH  11  22
HETATM   22  O4  SGN C   3      30.562  77.572  15.575  1.00 37.13    -0.348 OA
BRANCH  22  23
HETATM   23  C1  UAP C   4      29.360  78.261  15.619  1.00 39.64     0.294 C 
HETATM   24  C2  UAP C   4      29.125  78.986  14.306  1.00 38.70     0.228 C 
HETATM   25  C3  UAP C   4      27.850  79.821  14.391  1.00 38.51     0.156 C 
HETATM   26  C4  UAP C   4      26.639  79.081  15.126  1.00 38.14     0.077 C 
HETATM   27  C5  UAP C   4      26.987  77.886  15.772  1.00 38.51     0.228 C 
HETATM   28  O5  UAP C   4      28.323  77.308  15.816  1.00 37.46    -0.343 OA
BRANCH  24  29
HETATM   29  O2  UAP C   4      30.231  79.906  14.035  1.00 40.54    -0.244 OA
BRANCH  29  30
HETATM   30  S   UAP C   4      30.493  81.179  14.969  1.00 40.49     0.252 S 
HETATM   31  O1S UAP C   4      30.727  80.671  16.329  1.00 40.89    -0.572 OA
HETATM   32  O2S UAP C   4      29.283  82.012  14.901  1.00 37.88    -0.572 OA
HETATM   33  O3S UAP C   4      31.673  81.874  14.431  1.00 37.47    -0.572 OA
ENDBRANCH  29  30
ENDBRANCH  24  29
BRANCH  25  34
HETATM   34  O3  UAP C   4      27.450  80.186  13.079  1.00 38.58    -0.393 OA
ATOM     35  H3  UAP C   4      27.823  81.033  12.866  1.00  0.00     0.210 HD
ENDBRANCH  25  34
BRANCH  27  36
HETATM   36  C6  UAP C   4      25.987  77.037  16.477  1.00 37.96     0.203 C 
HETATM   37  O6A UAP C   4      24.984  77.592  16.968  1.00 40.05    -0.646 OA
HETATM   38  O6B UAP C   4      26.199  75.807  16.546  1.00 36.71    -0.646 OA
ENDBRANCH  27  36
ENDBRANCH  22  23
ENDBRANCH  11  22
BRANCH  12  39
HETATM   39  C6  SGN C   3      31.129  76.472  18.281  1.00 42.65     0.227 C 
BRANCH  39  40
HETATM   40  O6  SGN C   3      29.937  75.812  18.762  1.00 51.09    -0.254 OA
BRANCH  40  41
HETATM   41  S2  SGN C   3      29.430  76.239  20.214  1.00 54.80     0.251 S 
HETATM   42  O4S SGN C   3      30.622  76.533  21.030  1.00 54.99    -0.572 OA
HETATM   43  O5S SGN C   3      28.661  75.079  20.755  1.00 53.99    -0.572 OA
HETATM   44  O6S SGN C   3      28.591  77.417  20.040  1.00 55.43    -0.572 OA
ENDBRANCH  40  41
ENDBRANCH  39  40
ENDBRANCH  12  39
ENDBRANCH   7   8
ENDBRANCH   4   7
BRANCH   3  45
HETATM   45  O3  IDS C   2      34.025  74.396  18.890  1.00 39.65    -0.390 OA
ATOM     46  H3  IDS C   2      34.185  74.113  19.782  1.00  0.00     0.210 HD
ENDBRANCH   3  45
BRANCH   5  47
HETATM   47  C6  IDS C   2      35.007  72.014  14.651  1.00 36.10     0.206 C 
HETATM   48  O6A IDS C   2      34.156  71.397  13.973  1.00 32.44    -0.646 OA
HETATM   49  O6B IDS C   2      36.012  72.586  14.164  1.00 33.44    -0.646 OA
ENDBRANCH   5  47
BRANCH   2  50
HETATM   50  O2  IDS C   2      33.628  71.906  20.083  1.00 43.59    -0.244 OA
BRANCH  50  51
HETATM   51  S   IDS C   2      32.041  71.955  20.246  1.00 44.11     0.252 S 
HETATM   52  O1S IDS C   2      31.715  71.255  21.535  1.00 44.48    -0.572 OA
HETATM   53  O2S IDS C   2      31.463  71.262  19.075  1.00 44.29    -0.572 OA
HETATM   54  O3S IDS C   2      31.664  73.356  20.282  1.00 44.74    -0.572 OA
ENDBRANCH  50  51
ENDBRANCH   2  50
BRANCH   1  55
HETATM   55  O4  SGN C   1      34.771  69.751  18.187  1.00 44.73    -0.348 OA
BRANCH  55  56
HETATM   56  C4  SGN C   1      34.563  68.927  19.355  1.00 48.25     0.186 C 
HETATM   57  C3  SGN C   1      34.032  67.552  18.933  1.00 48.43     0.178 C 
HETATM   58  C2  SGN C   1      33.956  66.624  20.145  1.00 48.58     0.181 C 
HETATM   59  C1  SGN C   1      35.290  66.559  20.887  1.00 50.40     0.283 C 
HETATM   60  O5  SGN C   1      35.717  67.878  21.249  1.00 50.82    -0.349 OA
HETATM   61  C5  SGN C   1      35.893  68.749  20.107  1.00 51.58     0.181 C 
BRANCH  57  62
HETATM   62  O3  SGN C   1      32.739  67.686  18.364  1.00 46.09    -0.391 OA
ATOM     63  H3  SGN C   1      32.822  67.915  17.446  1.00  0.00     0.210 HD
ENDBRANCH  57  62
BRANCH  58  64
HETATM   64  N2  SGN C   1      33.561  65.291  19.737  1.00 48.56    -0.289 N 
ATOM     65  H2  SGN C   1      33.564  64.989  18.763  1.00  0.00     0.175 HD
BRANCH  64  66
HETATM   66  S1  SGN C   1      33.104  64.300  20.980  1.00 47.67     0.205 S 
HETATM   67  O1S SGN C   1      31.970  64.964  21.659  1.00 47.59    -0.578 OA
HETATM   68  O2S SGN C   1      34.284  64.186  21.842  1.00 48.55    -0.578 OA
HETATM   69  O3S SGN C   1      32.719  63.008  20.371  1.00 47.08    -0.578 OA
ENDBRANCH  64  66
ENDBRANCH  58  64
BRANCH  59  70
HETATM   70  O1  SGN C   1      36.256  65.988  20.071  1.00 51.36    -0.369 OA
ATOM     71  H1  SGN C   1      36.049  65.074  19.917  1.00  0.00     0.212 HD
ENDBRANCH  59  70
BRANCH  61  72
HETATM   72  C6  SGN C   1      36.441  70.050  20.637  1.00 55.48     0.227 C 
BRANCH  72  73
HETATM   73  O6  SGN C   1      35.832  70.347  21.912  1.00 61.59    -0.254 OA
BRANCH  73  74
HETATM   74  S2  SGN C   1      36.622  71.399  22.811  1.00 65.98     0.251 S 
HETATM   75  O4S SGN C   1      35.627  71.959  23.830  1.00 65.09    -0.572 OA
HETATM   76  O5S SGN C   1      37.111  72.427  21.911  1.00 65.58    -0.572 OA
HETATM   77  O6S SGN C   1      37.791  70.628  23.501  1.00 65.84    -0.572 OA
ENDBRANCH  73  74
ENDBRANCH  72  73
ENDBRANCH  61  72
ENDBRANCH  55  56
ENDBRANCH   1  55
TORSDOF 27
ENDMDL
MODEL 42
REMARK VINA RESULT:      -5.7      8.844     15.718
REMARK  27 active torsions:
REMARK  status: ('A' for Active; 'I' for Inactive)
REMARK    1  A    between atoms: C1_1  and  O1_2 
REMARK    2  A    between atoms: S1_5  and  N2_7 
REMARK    3  A    between atoms: C2_6  and  N2_7 
REMARK    4  A    between atoms: S2_10  and  O6_22 
REMARK    5  A    between atoms: C3_11  and  O3_12 
REMARK    6  A    between atoms: C4_15  and  O4_16 
REMARK    7  A    between atoms: O4_16  and  C1_24 
REMARK    8  A    between atoms: C5_18  and  C6_21 
REMARK    9  A    between atoms: C6_21  and  O6_22 
REMARK   10  A    between atoms: C2_26  and  O2_27 
REMARK   11  A    between atoms: O2_27  and  S_40 
REMARK   12  A    between atoms: C3_29  and  O3_30 
REMARK   13  A    between atoms: C4_33  and  O4_34 
REMARK   14  A    between atoms: O4_34  and  C1_41 
REMARK   15  A    between atoms: C5_35  and  C6_37 
REMARK   16  A    between atoms: S1_43  and  N2_45 
REMARK   17  A    between atoms: C2_44  and  N2_45 
REMARK   18  A    between atoms: S2_48  and  O6_60 
REMARK   19  A    between atoms: C3_49  and  O3_50 
REMARK   20  A    between atoms: C4_53  and  O4_54 
REMARK   21  A    between atoms: O4_54  and  C1_62 
REMARK   22  A    between atoms: C5_56  and  C6_59 
REMARK   23  A    between atoms: C6_59  and  O6_60 
REMARK   24  A    between atoms: C2_64  and  O2_65 
REMARK   25  A    between atoms: O2_65  and  S_77 
REMARK   26  A    between atoms: C3_67  and  O3_68 
REMARK   27  A    between atoms: C5_72  and  C6_74 
ROOT
HETATM    1  C1  IDS C   2      36.230  71.326  21.169  1.00 40.81     0.294 C 
HETATM    2  C2  IDS C   2      37.662  71.479  21.687  1.00 40.20     0.231 C 
HETATM    3  C3  IDS C   2      38.102  70.237  22.457  1.00 39.01     0.185 C 
HETATM    4  C4  IDS C   2      37.185  69.985  23.671  1.00 37.65     0.195 C 
HETATM    5  C5  IDS C   2      35.842  70.699  23.467  1.00 35.99     0.257 C 
HETATM    6  O5  IDS C   2      35.422  70.559  22.089  1.00 39.00    -0.340 OA
ENDROOT
BRANCH   4   7
HETATM    7  O4  IDS C   2      36.970  68.562  23.838  1.00 35.98    -0.348 OA
BRANCH   7   8
HETATM    8  C1  SGN C   3      37.287  67.757  22.734  1.00 35.40     0.287 C 
HETATM    9  C2  SGN C   3      36.412  66.491  22.734  1.00 33.71     0.182 C 
HETATM   10  C3  SGN C   3      36.830  65.494  23.821  1.00 35.79     0.178 C 
HETATM   11  C4  SGN C   3      38.352  65.276  23.847  1.00 36.62     0.186 C 
HETATM   12  C5  SGN C   3      39.073  66.619  23.842  1.00 39.32     0.181 C 
HETATM   13  O5  SGN C   3      38.657  67.399  22.708  1.00 37.58    -0.349 OA
BRANCH   9  14
HETATM   14  N2  SGN C   3      35.030  66.859  22.946  1.00 29.28    -0.289 N 
ATOM     15  H2  SGN C   3      34.781  67.676  23.504  1.00  0.00     0.175 HD
BRANCH  14  16
HETATM   16  S1  SGN C   3      33.869  65.909  22.255  1.00 27.84     0.205 S 
HETATM   17  O1S SGN C   3      34.483  65.410  21.039  1.00 27.65    -0.578 OA
HETATM   18  O2S SGN C   3      32.721  66.826  21.987  1.00 27.72    -0.578 OA
HETATM   19  O3S SGN C   3      33.498  64.809  23.200  1.00 28.50    -0.578 OA
ENDBRANCH  14  16
ENDBRANCH   9  14
BRANCH  10  20
HETATM   20  O3  SGN C   3      36.162  64.252  23.609  1.00 34.89    -0.391 OA
ATOM     21  H3  SGN C   3      35.237  64.353  23.802  1.00  0.00     0.210 HD
ENDBRANCH  10  20
BRANCH  11  22
HETATM   22  O4  SGN C   3      38.708  64.570  25.049  1.00 37.13    -0.348 OA
BRANCH  22  23
HETATM   23  C1  UAP C   4      39.071  63.244  24.873  1.00 39.64     0.294 C 
HETATM   24  C2  UAP C   4      38.046  62.331  25.520  1.00 38.70     0.228 C 
HETATM   25  C3  UAP C   4      38.496  60.877  25.410  1.00 38.51     0.156 C 
HETATM   26  C4  UAP C   4      39.122  60.499  23.989  1.00 38.14     0.077 C 
HETATM   27  C5  UAP C   4      39.369  61.593  23.147  1.00 38.51     0.228 C 
HETATM   28  O5  UAP C   4      39.106  62.987  23.475  1.00 37.46    -0.343 OA
BRANCH  24  29
HETATM   29  O2  UAP C   4      37.924  62.643  26.945  1.00 40.54    -0.244 OA
BRANCH  29  30
HETATM   30  S   UAP C   4      39.005  62.115  28.001  1.00 40.49     0.252 S 
HETATM   31  O1S UAP C   4      38.280  61.302  28.988  1.00 40.89    -0.572 OA
HETATM   32  O2S UAP C   4      39.611  63.304  28.618  1.00 37.88    -0.572 OA
HETATM   33  O3S UAP C   4      39.990  61.320  27.250  1.00 37.47    -0.572 OA
ENDBRANCH  29  30
ENDBRANCH  24  29
BRANCH  25  34
HETATM   34  O3  UAP C   4      37.389  60.030  25.675  1.00 38.58    -0.393 OA
ATOM     35  H3  UAP C   4      37.588  59.488  26.429  1.00  0.00     0.210 HD
ENDBRANCH  25  34
BRANCH  27  36
HETATM   36  C6  UAP C   4      39.913  61.436  21.769  1.00 37.96     0.203 C 
HETATM   37  O6A UAP C   4      40.737  62.278  21.362  1.00 40.05    -0.646 OA
HETATM   38  O6B UAP C   4      39.516  60.469  21.084  1.00 36.71    -0.646 OA
ENDBRANCH  27  36
ENDBRANCH  22  23
ENDBRANCH  11  22
BRANCH  12  39
HETATM   39  C6  SGN C   3      40.571  66.515  23.782  1.00 42.65     0.227 C 
BRANCH  39  40
HETATM   40  O6  SGN C   3      41.033  67.799  23.310  1.00 51.09    -0.254 OA
BRANCH  40  41
HETATM   41  S2  SGN C   3      42.449  67.815  22.574  1.00 54.80     0.251 S 
HETATM   42  O4S SGN C   3      42.921  69.211  22.555  1.00 54.99    -0.572 OA
HETATM   43  O5S SGN C   3      42.220  67.288  21.196  1.00 53.99    -0.572 OA
HETATM   44  O6S SGN C   3      43.337  66.955  23.347  1.00 55.43    -0.572 OA
ENDBRANCH  40  41
ENDBRANCH  39  40
ENDBRANCH  12  39
ENDBRANCH   7   8
ENDBRANCH   4   7
BRANCH   3  45
HETATM   45  O3  IDS C   2      39.445  70.400  22.893  1.00 39.65    -0.390 OA
ATOM     46  H3  IDS C   2      39.608  69.833  23.636  1.00  0.00     0.210 HD
ENDBRANCH   3  45
BRANCH   5  47
HETATM   47  C6  IDS C   2      34.709  70.202  24.354  1.00 36.10     0.206 C 
HETATM   48  O6A IDS C   2      34.678  70.608  25.536  1.00 32.44    -0.646 OA
HETATM   49  O6B IDS C   2      33.858  69.428  23.855  1.00 33.44    -0.646 OA
ENDBRANCH   5  47
BRANCH   2  50
HETATM   50  O2  IDS C   2      38.573  71.666  20.565  1.00 43.59    -0.244 OA
BRANCH  50  51
HETATM   51  S   IDS C   2      39.616  72.874  20.589  1.00 44.11     0.252 S 
HETATM   52  O1S IDS C   2      39.712  73.337  22.015  1.00 44.48    -0.572 OA
HETATM   53  O2S IDS C   2      39.083  73.925  19.697  1.00 44.29    -0.572 OA
HETATM   54  O3S IDS C   2      40.880  72.348  20.105  1.00 44.74    -0.572 OA
ENDBRANCH  50  51
ENDBRANCH   2  50
BRANCH   1  55
HETATM   55  O4  SGN C   1      35.656  72.580  21.018  1.00 44.73    -0.348 OA
BRANCH  55  56
HETATM   56  C4  SGN C   1      34.447  72.674  20.232  1.00 48.25     0.186 C 
HETATM   57  C3  SGN C   1      33.915  74.112  20.268  1.00 48.43     0.178 C 
HETATM   58  C2  SGN C   1      32.728  74.256  19.317  1.00 48.58     0.181 C 
HETATM   59  C1  SGN C   1      33.073  73.770  17.910  1.00 50.40     0.283 C 
HETATM   60  O5  SGN C   1      33.559  72.423  17.959  1.00 50.82    -0.349 OA
HETATM   61  C5  SGN C   1      34.744  72.279  18.776  1.00 51.58     0.181 C 
BRANCH  57  62
HETATM   62  O3  SGN C   1      33.504  74.443  21.585  1.00 46.09    -0.391 OA
ATOM     63  H3  SGN C   1      32.562  74.336  21.656  1.00  0.00     0.210 HD
ENDBRANCH  57  62
BRANCH  58  64
HETATM   64  N2  SGN C   1      32.289  75.635  19.261  1.00 48.56    -0.289 N 
ATOM     65  H2  SGN C   1      32.858  76.378  18.857  1.00  0.00     0.175 HD
BRANCH  64  66
HETATM   66  S1  SGN C   1      30.789  75.906  19.906  1.00 47.67     0.205 S 
HETATM   67  O1S SGN C   1      31.001  76.564  21.213  1.00 47.59    -0.578 OA
HETATM   68  O2S SGN C   1      30.177  74.580  20.039  1.00 48.55    -0.578 OA
HETATM   69  O3S SGN C   1      30.067  76.771  18.948  1.00 47.08    -0.578 OA
ENDBRANCH  64  66
ENDBRANCH  58  64
BRANCH  59  70
HETATM   70  O1  SGN C   1      34.058  74.577  17.361  1.00 51.36    -0.369 OA
ATOM     71  H1  SGN C   1      33.680  75.402  17.081  1.00  0.00     0.212 HD
ENDBRANCH  59  70
BRANCH  61  72
HETATM   72  C6  SGN C   1      35.189  70.844  18.641  1.00 55.48     0.227 C 
BRANCH  72  73
HETATM   73  O6  SGN C   1      34.066  70.024  18.254  1.00 61.59    -0.254 OA
BRANCH  73  74
HETATM   74  S2  SGN C   1      33.588  68.970  19.349  1.00 65.98     0.251 S 
HETATM   75  O4S SGN C   1      32.825  69.748  20.423  1.00 65.09    -0.572 OA
HETATM   76  O5S SGN C   1      34.789  68.352  19.880  1.00 65.58    -0.572 OA
HETATM   77  O6S SGN C   1      32.675  67.933  18.622  1.00 65.84    -0.572 OA
ENDBRANCH  73  74
ENDBRANCH  72  73
ENDBRANCH  61  72
ENDBRANCH  55  56
ENDBRANCH   1  55
TORSDOF 27
ENDMDL
MODEL 43
REMARK VINA RESULT:      -5.7      6.095     14.125
REMARK  27 active torsions:
REMARK  status: ('A' for Active; 'I' for Inactive)
REMARK    1  A    between atoms: C1_1  and  O1_2 
REMARK    2  A    between atoms: S1_5  and  N2_7 
REMARK    3  A    between atoms: C2_6  and  N2_7 
REMARK    4  A    between atoms: S2_10  and  O6_22 
REMARK    5  A    between atoms: C3_11  and  O3_12 
REMARK    6  A    between atoms: C4_15  and  O4_16 
REMARK    7  A    between atoms: O4_16  and  C1_24 
REMARK    8  A    between atoms: C5_18  and  C6_21 
REMARK    9  A    between atoms: C6_21  and  O6_22 
REMARK   10  A    between atoms: C2_26  and  O2_27 
REMARK   11  A    between atoms: O2_27  and  S_40 
REMARK   12  A    between atoms: C3_29  and  O3_30 
REMARK   13  A    between atoms: C4_33  and  O4_34 
REMARK   14  A    between atoms: O4_34  and  C1_41 
REMARK   15  A    between atoms: C5_35  and  C6_37 
REMARK   16  A    between atoms: S1_43  and  N2_45 
REMARK   17  A    between atoms: C2_44  and  N2_45 
REMARK   18  A    between atoms: S2_48  and  O6_60 
REMARK   19  A    between atoms: C3_49  and  O3_50 
REMARK   20  A    between atoms: C4_53  and  O4_54 
REMARK   21  A    between atoms: O4_54  and  C1_62 
REMARK   22  A    between atoms: C5_56  and  C6_59 
REMARK   23  A    between atoms: C6_59  and  O6_60 
REMARK   24  A    between atoms: C2_64  and  O2_65 
REMARK   25  A    between atoms: O2_65  and  S_77 
REMARK   26  A    between atoms: C3_67  and  O3_68 
REMARK   27  A    between atoms: C5_72  and  C6_74 
ROOT
HETATM    1  C1  IDS C   2      26.247  85.515  12.910  1.00 40.81     0.294 C 
HETATM    2  C2  IDS C   2      26.201  86.879  12.217  1.00 40.20     0.231 C 
HETATM    3  C3  IDS C   2      24.786  87.211  11.753  1.00 39.01     0.185 C 
HETATM    4  C4  IDS C   2      24.270  86.156  10.754  1.00 37.65     0.195 C 
HETATM    5  C5  IDS C   2      25.068  84.856  10.911  1.00 35.99     0.257 C 
HETATM    6  O5  IDS C   2      25.304  84.596  12.315  1.00 39.00    -0.340 OA
ENDROOT
BRANCH   4   7
HETATM    7  O4  IDS C   2      22.861  85.906  10.987  1.00 35.98    -0.348 OA
BRANCH   7   8
HETATM    8  C1  SGN C   3      22.351  86.351  12.215  1.00 35.40     0.287 C 
HETATM    9  C2  SGN C   3      21.416  85.288  12.817  1.00 33.71     0.182 C 
HETATM   10  C3  SGN C   3      20.077  85.202  12.075  1.00 35.79     0.178 C 
HETATM   11  C4  SGN C   3      19.467  86.593  11.829  1.00 36.62     0.186 C 
HETATM   12  C5  SGN C   3      20.514  87.526  11.236  1.00 39.32     0.181 C 
HETATM   13  O5  SGN C   3      21.667  87.586  12.094  1.00 37.58    -0.349 OA
BRANCH   9  14
HETATM   14  N2  SGN C   3      22.060  83.993  12.765  1.00 29.28    -0.289 N 
ATOM     15  H2  SGN C   3      22.429  83.622  11.890  1.00  0.00     0.175 HD
BRANCH  14  16
HETATM   16  S1  SGN C   3      22.176  83.138  14.173  1.00 27.84     0.205 S 
HETATM   17  O1S SGN C   3      21.961  81.758  13.780  1.00 27.65    -0.578 OA
HETATM   18  O2S SGN C   3      21.085  83.667  15.044  1.00 27.72    -0.578 OA
HETATM   19  O3S SGN C   3      23.529  83.355  14.777  1.00 28.50    -0.578 OA
ENDBRANCH  14  16
ENDBRANCH   9  14
BRANCH  10  20
HETATM   20  O3  SGN C   3      19.170  84.396  12.823  1.00 34.89    -0.391 OA
ATOM     21  H3  SGN C   3      18.281  84.573  12.540  1.00  0.00     0.210 HD
ENDBRANCH  10  20
BRANCH  11  22
HETATM   22  O4  SGN C   3      18.379  86.473  10.894  1.00 37.13    -0.348 OA
BRANCH  22  23
HETATM   23  C1  UAP C   4      17.125  86.770  11.403  1.00 39.64     0.294 C 
HETATM   24  C2  UAP C   4      16.240  87.341  10.309  1.00 38.70     0.228 C 
HETATM   25  C3  UAP C   4      14.892  87.758  10.891  1.00 38.51     0.156 C 
HETATM   26  C4  UAP C   4      14.292  86.718  11.946  1.00 38.14     0.077 C 
HETATM   27  C5  UAP C   4      15.180  85.708  12.344  1.00 38.51     0.228 C 
HETATM   28  O5  UAP C   4      16.552  85.559  11.879  1.00 37.46    -0.343 OA
BRANCH  24  29
HETATM   29  O2  UAP C   4      16.857  88.539   9.737  1.00 40.54    -0.244 OA
BRANCH  29  30
HETATM   30  S   UAP C   4      17.118  88.660   8.162  1.00 40.49     0.252 S 
HETATM   31  O1S UAP C   4      17.659  90.005   7.920  1.00 40.89    -0.572 OA
HETATM   32  O2S UAP C   4      15.819  88.471   7.500  1.00 37.88    -0.572 OA
HETATM   33  O3S UAP C   4      18.080  87.607   7.801  1.00 37.47    -0.572 OA
ENDBRANCH  29  30
ENDBRANCH  24  29
BRANCH  25  34
HETATM   34  O3  UAP C   4      13.966  87.936   9.830  1.00 38.58    -0.393 OA
ATOM     35  H3  UAP C   4      13.132  87.557  10.081  1.00  0.00     0.210 HD
ENDBRANCH  25  34
BRANCH  27  36
HETATM   36  C6  UAP C   4      14.790  84.626  13.289  1.00 37.96     0.203 C 
HETATM   37  O6A UAP C   4      15.598  83.698  13.488  1.00 40.05    -0.646 OA
HETATM   38  O6B UAP C   4      13.669  84.695  13.838  1.00 36.71    -0.646 OA
ENDBRANCH  27  36
ENDBRANCH  22  23
ENDBRANCH  11  22
BRANCH  12  39
HETATM   39  C6  SGN C   3      20.040  88.938  11.034  1.00 42.65     0.227 C 
BRANCH  39  40
HETATM   40  O6  SGN C   3      20.405  89.284   9.681  1.00 51.09    -0.254 OA
BRANCH  40  41
HETATM   41  S2  SGN C   3      21.453  90.477   9.513  1.00 54.80     0.251 S 
HETATM   42  O4S SGN C   3      21.272  91.388  10.657  1.00 54.99    -0.572 OA
HETATM   43  O5S SGN C   3      21.133  91.145   8.216  1.00 53.99    -0.572 OA
HETATM   44  O6S SGN C   3      22.780  89.876   9.505  1.00 55.43    -0.572 OA
ENDBRANCH  40  41
ENDBRANCH  39  40
ENDBRANCH  12  39
ENDBRANCH   7   8
ENDBRANCH   4   7
BRANCH   3  45
HETATM   45  O3  IDS C   2      24.775  88.496  11.147  1.00 39.65    -0.390 OA
ATOM     46  H3  IDS C   2      24.026  88.567  10.567  1.00  0.00     0.210 HD
ENDBRANCH   3  45
BRANCH   5  47
HETATM   47  C6  IDS C   2      24.409  83.621  10.312  1.00 36.10     0.206 C 
HETATM   48  O6A IDS C   2      24.156  83.634   9.087  1.00 32.44    -0.646 OA
HETATM   49  O6B IDS C   2      24.167  82.649  11.067  1.00 33.44    -0.646 OA
ENDBRANCH   5  47
BRANCH   2  50
HETATM   50  O2  IDS C   2      26.631  87.916  13.146  1.00 43.59    -0.244 OA
BRANCH  50  51
HETATM   51  S   IDS C   2      27.882  88.836  12.777  1.00 44.11     0.252 S 
HETATM   52  O1S IDS C   2      27.530  89.558  11.507  1.00 44.48    -0.572 OA
HETATM   53  O2S IDS C   2      29.044  87.939  12.605  1.00 44.29    -0.572 OA
HETATM   54  O3S IDS C   2      28.071  89.755  13.885  1.00 44.74    -0.572 OA
ENDBRANCH  50  51
ENDBRANCH   2  50
BRANCH   1  55
HETATM   55  O4  SGN C   1      27.522  84.979  12.792  1.00 44.73    -0.348 OA
BRANCH  55  56
HETATM   56  C4  SGN C   1      27.921  83.982  13.757  1.00 48.25     0.186 C 
HETATM   57  C3  SGN C   1      28.233  82.661  13.042  1.00 48.43     0.178 C 
HETATM   58  C2  SGN C   1      28.804  81.649  14.034  1.00 48.58     0.181 C 
HETATM   59  C1  SGN C   1      29.996  82.222  14.798  1.00 50.40     0.283 C 
HETATM   60  O5  SGN C   1      29.627  83.450  15.438  1.00 50.82    -0.349 OA
HETATM   61  C5  SGN C   1      29.176  84.460  14.507  1.00 51.58     0.181 C 
BRANCH  57  62
HETATM   62  O3  SGN C   1      27.049  82.134  12.463  1.00 46.09    -0.391 OA
ATOM     63  H3  SGN C   1      26.449  81.878  13.154  1.00  0.00     0.210 HD
ENDBRANCH  57  62
BRANCH  58  64
HETATM   64  N2  SGN C   1      29.203  80.438  13.347  1.00 48.56    -0.289 N 
ATOM     65  H2  SGN C   1      29.272  80.378  12.331  1.00  0.00     0.175 HD
BRANCH  64  66
HETATM   66  S1  SGN C   1      29.539  79.161  14.343  1.00 47.67     0.205 S 
HETATM   67  O1S SGN C   1      30.956  79.296  14.745  1.00 47.59    -0.578 OA
HETATM   68  O2S SGN C   1      29.298  77.961  13.535  1.00 48.55    -0.578 OA
HETATM   69  O3S SGN C   1      28.613  79.266  15.493  1.00 47.08    -0.578 OA
ENDBRANCH  64  66
ENDBRANCH  58  64
BRANCH  59  70
HETATM   70  O1  SGN C   1      31.040  82.477  13.921  1.00 51.36    -0.369 OA
ATOM     71  H1  SGN C   1      30.816  82.164  13.052  1.00  0.00     0.212 HD
ENDBRANCH  59  70
BRANCH  61  72
HETATM   72  C6  SGN C   1      28.929  85.711  15.314  1.00 55.48     0.227 C 
BRANCH  72  73
HETATM   73  O6  SGN C   1      28.270  85.366  16.551  1.00 61.59    -0.254 OA
BRANCH  73  74
HETATM   74  S2  SGN C   1      27.756  86.604  17.412  1.00 65.98     0.251 S 
HETATM   75  O4S SGN C   1      26.298  86.323  17.782  1.00 65.09    -0.572 OA
HETATM   76  O5S SGN C   1      27.882  87.777  16.567  1.00 65.58    -0.572 OA
HETATM   77  O6S SGN C   1      28.670  86.697  18.675  1.00 65.84    -0.572 OA
ENDBRANCH  73  74
ENDBRANCH  72  73
ENDBRANCH  61  72
ENDBRANCH  55  56
ENDBRANCH   1  55
TORSDOF 27
ENDMDL
MODEL 44
REMARK VINA RESULT:      -5.7      5.807     11.638
REMARK  27 active torsions:
REMARK  status: ('A' for Active; 'I' for Inactive)
REMARK    1  A    between atoms: C1_1  and  O1_2 
REMARK    2  A    between atoms: S1_5  and  N2_7 
REMARK    3  A    between atoms: C2_6  and  N2_7 
REMARK    4  A    between atoms: S2_10  and  O6_22 
REMARK    5  A    between atoms: C3_11  and  O3_12 
REMARK    6  A    between atoms: C4_15  and  O4_16 
REMARK    7  A    between atoms: O4_16  and  C1_24 
REMARK    8  A    between atoms: C5_18  and  C6_21 
REMARK    9  A    between atoms: C6_21  and  O6_22 
REMARK   10  A    between atoms: C2_26  and  O2_27 
REMARK   11  A    between atoms: O2_27  and  S_40 
REMARK   12  A    between atoms: C3_29  and  O3_30 
REMARK   13  A    between atoms: C4_33  and  O4_34 
REMARK   14  A    between atoms: O4_34  and  C1_41 
REMARK   15  A    between atoms: C5_35  and  C6_37 
REMARK   16  A    between atoms: S1_43  and  N2_45 
REMARK   17  A    between atoms: C2_44  and  N2_45 
REMARK   18  A    between atoms: S2_48  and  O6_60 
REMARK   19  A    between atoms: C3_49  and  O3_50 
REMARK   20  A    between atoms: C4_53  and  O4_54 
REMARK   21  A    between atoms: O4_54  and  C1_62 
REMARK   22  A    between atoms: C5_56  and  C6_59 
REMARK   23  A    between atoms: C6_59  and  O6_60 
REMARK   24  A    between atoms: C2_64  and  O2_65 
REMARK   25  A    between atoms: O2_65  and  S_77 
REMARK   26  A    between atoms: C3_67  and  O3_68 
REMARK   27  A    between atoms: C5_72  and  C6_74 
ROOT
HETATM    1  C1  IDS C   2      26.234  82.620  13.345  1.00 40.81     0.294 C 
HETATM    2  C2  IDS C   2      26.465  81.108  13.299  1.00 40.20     0.231 C 
HETATM    3  C3  IDS C   2      25.279  80.392  12.658  1.00 39.01     0.185 C 
HETATM    4  C4  IDS C   2      23.983  80.648  13.454  1.00 37.65     0.195 C 
HETATM    5  C5  IDS C   2      24.137  81.915  14.306  1.00 35.99     0.257 C 
HETATM    6  O5  IDS C   2      24.838  82.929  13.548  1.00 39.00    -0.340 OA
ENDROOT
BRANCH   4   7
HETATM    7  O4  IDS C   2      22.867  80.796  12.541  1.00 35.98    -0.348 OA
BRANCH   7   8
HETATM    8  C1  SGN C   3      23.195  81.069  11.205  1.00 35.40     0.287 C 
HETATM    9  C2  SGN C   3      22.341  82.236  10.679  1.00 33.71     0.182 C 
HETATM   10  C3  SGN C   3      20.884  81.828  10.436  1.00 35.79     0.178 C 
HETATM   11  C4  SGN C   3      20.779  80.499   9.668  1.00 36.62     0.186 C 
HETATM   12  C5  SGN C   3      21.681  79.452  10.309  1.00 39.32     0.181 C 
HETATM   13  O5  SGN C   3      23.035  79.936  10.371  1.00 37.58    -0.349 OA
BRANCH   9  14
HETATM   14  N2  SGN C   3      22.367  83.323  11.633  1.00 29.28    -0.289 N 
ATOM     15  H2  SGN C   3      22.383  83.143  12.637  1.00  0.00     0.175 HD
BRANCH  14  16
HETATM   16  S1  SGN C   3      22.370  84.864  11.039  1.00 27.84     0.205 S 
HETATM   17  O1S SGN C   3      23.427  85.535  11.772  1.00 27.65    -0.578 OA
HETATM   18  O2S SGN C   3      21.015  85.407  11.353  1.00 27.72    -0.578 OA
HETATM   19  O3S SGN C   3      22.631  84.829   9.566  1.00 28.50    -0.578 OA
ENDBRANCH  14  16
ENDBRANCH   9  14
BRANCH  10  20
HETATM   20  O3  SGN C   3      20.214  82.862   9.718  1.00 34.89    -0.391 OA
ATOM     21  H3  SGN C   3      20.006  83.575  10.310  1.00  0.00     0.210 HD
ENDBRANCH  10  20
BRANCH  11  22
HETATM   22  O4  SGN C   3      19.421  80.028   9.721  1.00 37.13    -0.348 OA
BRANCH  22  23
HETATM   23  C1  UAP C   4      18.759  79.988   8.504  1.00 39.64     0.294 C 
HETATM   24  C2  UAP C   4      17.821  81.175   8.380  1.00 38.70     0.228 C 
HETATM   25  C3  UAP C   4      17.021  81.077   7.084  1.00 38.51     0.156 C 
HETATM   26  C4  UAP C   4      17.885  80.603   5.825  1.00 38.14     0.077 C 
HETATM   27  C5  UAP C   4      19.170  80.138   6.137  1.00 38.51     0.228 C 
HETATM   28  O5  UAP C   4      19.738  80.060   7.476  1.00 37.46    -0.343 OA
BRANCH  24  29
HETATM   29  O2  UAP C   4      16.860  81.174   9.485  1.00 40.54    -0.244 OA
BRANCH  29  30
HETATM   30  S   UAP C   4      16.519  82.519  10.282  1.00 40.49     0.252 S 
HETATM   31  O1S UAP C   4      17.740  82.912  11.002  1.00 40.89    -0.572 OA
HETATM   32  O2S UAP C   4      15.423  82.198  11.208  1.00 37.88    -0.572 OA
HETATM   33  O3S UAP C   4      16.121  83.525   9.284  1.00 37.47    -0.572 OA
ENDBRANCH  29  30
ENDBRANCH  24  29
BRANCH  25  34
HETATM   34  O3  UAP C   4      16.439  82.341   6.804  1.00 38.58    -0.393 OA
ATOM     35  H3  UAP C   4      16.560  82.539   5.883  1.00  0.00     0.210 HD
ENDBRANCH  25  34
BRANCH  27  36
HETATM   36  C6  UAP C   4      20.135  79.692   5.094  1.00 37.96     0.203 C 
HETATM   37  O6A UAP C   4      20.228  78.470   4.862  1.00 40.05    -0.646 OA
HETATM   38  O6B UAP C   4      20.809  80.561   4.501  1.00 36.71    -0.646 OA
ENDBRANCH  27  36
ENDBRANCH  22  23
ENDBRANCH  11  22
BRANCH  12  39
HETATM   39  C6  SGN C   3      21.715  78.137   9.581  1.00 42.65     0.227 C 
BRANCH  39  40
HETATM   40  O6  SGN C   3      21.703  78.469   8.175  1.00 51.09    -0.254 OA
BRANCH  40  41
HETATM   41  S2  SGN C   3      23.107  78.396   7.419  1.00 54.80     0.251 S 
HETATM   42  O4S SGN C   3      23.349  79.716   6.809  1.00 54.99    -0.572 OA
HETATM   43  O5S SGN C   3      22.980  77.323   6.387  1.00 53.99    -0.572 OA
HETATM   44  O6S SGN C   3      24.112  78.072   8.423  1.00 55.43    -0.572 OA
ENDBRANCH  40  41
ENDBRANCH  39  40
ENDBRANCH  12  39
ENDBRANCH   7   8
ENDBRANCH   4   7
BRANCH   3  45
HETATM   45  O3  IDS C   2      25.543  78.997  12.601  1.00 39.65    -0.390 OA
ATOM     46  H3  IDS C   2      24.755  78.516  12.826  1.00  0.00     0.210 HD
ENDBRANCH   3  45
BRANCH   5  47
HETATM   47  C6  IDS C   2      22.830  82.520  14.799  1.00 36.10     0.206 C 
HETATM   48  O6A IDS C   2      22.096  81.808  15.520  1.00 32.44    -0.646 OA
HETATM   49  O6B IDS C   2      22.560  83.701  14.474  1.00 33.44    -0.646 OA
ENDBRANCH   5  47
BRANCH   2  50
HETATM   50  O2  IDS C   2      27.654  80.817  12.508  1.00 43.59    -0.244 OA
BRANCH  50  51
HETATM   51  S   IDS C   2      28.918  80.136  13.207  1.00 44.11     0.252 S 
HETATM   52  O1S IDS C   2      29.201  80.923  14.455  1.00 44.48    -0.572 OA
HETATM   53  O2S IDS C   2      30.035  80.202  12.241  1.00 44.29    -0.572 OA
HETATM   54  O3S IDS C   2      28.546  78.765  13.506  1.00 44.74    -0.572 OA
ENDBRANCH  50  51
ENDBRANCH   2  50
BRANCH   1  55
HETATM   55  O4  SGN C   1      26.964  83.168  14.391  1.00 44.73    -0.348 OA
BRANCH  55  56
HETATM   56  C4  SGN C   1      27.450  84.519  14.233  1.00 48.25     0.186 C 
HETATM   57  C3  SGN C   1      28.012  85.027  15.566  1.00 48.43     0.178 C 
HETATM   58  C2  SGN C   1      28.667  86.394  15.373  1.00 48.58     0.181 C 
HETATM   59  C1  SGN C   1      29.700  86.367  14.248  1.00 50.40     0.283 C 
HETATM   60  O5  SGN C   1      29.101  85.885  13.039  1.00 50.82    -0.349 OA
HETATM   61  C5  SGN C   1      28.561  84.550  13.170  1.00 51.58     0.181 C 
BRANCH  57  62
HETATM   62  O3  SGN C   1      26.967  85.139  16.520  1.00 46.09    -0.391 OA
ATOM     63  H3  SGN C   1      27.313  85.515  17.322  1.00  0.00     0.210 HD
ENDBRANCH  57  62
BRANCH  58  64
HETATM   64  N2  SGN C   1      29.297  86.832  16.602  1.00 48.56    -0.289 N 
ATOM     65  H2  SGN C   1      30.082  86.338  17.025  1.00  0.00     0.175 HD
BRANCH  64  66
HETATM   66  S1  SGN C   1      28.638  88.198  17.263  1.00 47.67     0.205 S 
HETATM   67  O1S SGN C   1      28.922  89.305  16.324  1.00 47.59    -0.578 OA
HETATM   68  O2S SGN C   1      29.313  88.371  18.553  1.00 48.55    -0.578 OA
HETATM   69  O3S SGN C   1      27.189  87.941  17.411  1.00 47.08    -0.578 OA
ENDBRANCH  64  66
ENDBRANCH  58  64
BRANCH  59  70
HETATM   70  O1  SGN C   1      30.748  85.525  14.590  1.00 51.36    -0.369 OA
ATOM     71  H1  SGN C   1      30.845  84.846  13.933  1.00  0.00     0.212 HD
ENDBRANCH  59  70
BRANCH  61  72
HETATM   72  C6  SGN C   1      28.068  84.149  11.802  1.00 55.48     0.227 C 
BRANCH  72  73
HETATM   73  O6  SGN C   1      27.297  85.228  11.231  1.00 61.59    -0.254 OA
BRANCH  73  74
HETATM   74  S2  SGN C   1      26.593  84.894   9.840  1.00 65.98     0.251 S 
HETATM   75  O4S SGN C   1      25.781  86.127   9.438  1.00 65.09    -0.572 OA
HETATM   76  O5S SGN C   1      25.744  83.740  10.072  1.00 65.58    -0.572 OA
HETATM   77  O6S SGN C   1      27.727  84.584   8.814  1.00 65.84    -0.572 OA
ENDBRANCH  73  74
ENDBRANCH  72  73
ENDBRANCH  61  72
ENDBRANCH  55  56
ENDBRANCH   1  55
TORSDOF 27
ENDMDL
MODEL 45
REMARK VINA RESULT:      -5.6      5.596     13.526
REMARK  27 active torsions:
REMARK  status: ('A' for Active; 'I' for Inactive)
REMARK    1  A    between atoms: C1_1  and  O1_2 
REMARK    2  A    between atoms: S1_5  and  N2_7 
REMARK    3  A    between atoms: C2_6  and  N2_7 
REMARK    4  A    between atoms: S2_10  and  O6_22 
REMARK    5  A    between atoms: C3_11  and  O3_12 
REMARK    6  A    between atoms: C4_15  and  O4_16 
REMARK    7  A    between atoms: O4_16  and  C1_24 
REMARK    8  A    between atoms: C5_18  and  C6_21 
REMARK    9  A    between atoms: C6_21  and  O6_22 
REMARK   10  A    between atoms: C2_26  and  O2_27 
REMARK   11  A    between atoms: O2_27  and  S_40 
REMARK   12  A    between atoms: C3_29  and  O3_30 
REMARK   13  A    between atoms: C4_33  and  O4_34 
REMARK   14  A    between atoms: O4_34  and  C1_41 
REMARK   15  A    between atoms: C5_35  and  C6_37 
REMARK   16  A    between atoms: S1_43  and  N2_45 
REMARK   17  A    between atoms: C2_44  and  N2_45 
REMARK   18  A    between atoms: S2_48  and  O6_60 
REMARK   19  A    between atoms: C3_49  and  O3_50 
REMARK   20  A    between atoms: C4_53  and  O4_54 
REMARK   21  A    between atoms: O4_54  and  C1_62 
REMARK   22  A    between atoms: C5_56  and  C6_59 
REMARK   23  A    between atoms: C6_59  and  O6_60 
REMARK   24  A    between atoms: C2_64  and  O2_65 
REMARK   25  A    between atoms: O2_65  and  S_77 
REMARK   26  A    between atoms: C3_67  and  O3_68 
REMARK   27  A    between atoms: C5_72  and  C6_74 
ROOT
HETATM    1  C1  IDS C   2      26.758  85.421  13.021  1.00 40.81     0.294 C 
HETATM    2  C2  IDS C   2      26.747  86.841  12.451  1.00 40.20     0.231 C 
HETATM    3  C3  IDS C   2      25.399  87.165  11.812  1.00 39.01     0.185 C 
HETATM    4  C4  IDS C   2      25.086  86.191  10.659  1.00 37.65     0.195 C 
HETATM    5  C5  IDS C   2      25.915  84.910  10.819  1.00 35.99     0.257 C 
HETATM    6  O5  IDS C   2      25.957  84.529  12.215  1.00 39.00    -0.340 OA
ENDROOT
BRANCH   4   7
HETATM    7  O4  IDS C   2      23.672  85.870  10.658  1.00 35.98    -0.348 OA
BRANCH   7   8
HETATM    8  C1  SGN C   3      22.923  86.380  11.728  1.00 35.40     0.287 C 
HETATM    9  C2  SGN C   3      22.130  85.248  12.405  1.00 33.71     0.182 C 
HETATM   10  C3  SGN C   3      20.945  84.776  11.553  1.00 35.79     0.178 C 
HETATM   11  C4  SGN C   3      20.126  85.957  11.004  1.00 36.62     0.186 C 
HETATM   12  C5  SGN C   3      21.052  86.987  10.371  1.00 39.32     0.181 C 
HETATM   13  O5  SGN C   3      22.043  87.413  11.322  1.00 37.58    -0.349 OA
BRANCH   9  14
HETATM   14  N2  SGN C   3      23.005  84.123  12.649  1.00 29.28    -0.289 N 
ATOM     15  H2  SGN C   3      23.751  83.884  11.996  1.00  0.00     0.175 HD
BRANCH  14  16
HETATM   16  S1  SGN C   3      22.753  83.239  14.021  1.00 27.84     0.205 S 
HETATM   17  O1S SGN C   3      21.831  84.039  14.805  1.00 27.65    -0.578 OA
HETATM   18  O2S SGN C   3      24.097  83.116  14.660  1.00 27.72    -0.578 OA
HETATM   19  O3S SGN C   3      22.183  81.904  13.656  1.00 28.50    -0.578 OA
ENDBRANCH  14  16
ENDBRANCH   9  14
BRANCH  10  20
HETATM   20  O3  SGN C   3      20.111  83.921  12.332  1.00 34.89    -0.391 OA
ATOM     21  H3  SGN C   3      19.208  84.207  12.256  1.00  0.00     0.210 HD
ENDBRANCH  10  20
BRANCH  11  22
HETATM   22  O4  SGN C   3      19.219  85.475   9.996  1.00 37.13    -0.348 OA
BRANCH  22  23
HETATM   23  C1  UAP C   4      18.258  84.581  10.442  1.00 39.64     0.294 C 
HETATM   24  C2  UAP C   4      16.872  85.074  10.063  1.00 38.70     0.228 C 
HETATM   25  C3  UAP C   4      15.810  84.141  10.638  1.00 38.51     0.156 C 
HETATM   26  C4  UAP C   4      16.172  82.589  10.508  1.00 38.14     0.077 C 
HETATM   27  C5  UAP C   4      17.488  82.327  10.099  1.00 38.51     0.228 C 
HETATM   28  O5  UAP C   4      18.497  83.334   9.804  1.00 37.46    -0.343 OA
BRANCH  24  29
HETATM   29  O2  UAP C   4      16.638  86.403  10.632  1.00 40.54    -0.244 OA
BRANCH  29  30
HETATM   30  S   UAP C   4      16.024  87.584   9.743  1.00 40.49     0.252 S 
HETATM   31  O1S UAP C   4      17.148  88.214   9.033  1.00 40.89    -0.572 OA
HETATM   32  O2S UAP C   4      15.376  88.521  10.671  1.00 37.88    -0.572 OA
HETATM   33  O3S UAP C   4      15.061  86.971   8.814  1.00 37.47    -0.572 OA
ENDBRANCH  29  30
ENDBRANCH  24  29
BRANCH  25  34
HETATM   34  O3  UAP C   4      14.575  84.390   9.985  1.00 38.58    -0.393 OA
ATOM     35  H3  UAP C   4      14.152  85.134  10.397  1.00  0.00     0.210 HD
ENDBRANCH  25  34
BRANCH  27  36
HETATM   36  C6  UAP C   4      17.998  80.944   9.884  1.00 37.96     0.203 C 
HETATM   37  O6A UAP C   4      18.998  80.578  10.532  1.00 40.05    -0.646 OA
HETATM   38  O6B UAP C   4      17.402  80.215   9.062  1.00 36.71    -0.646 OA
ENDBRANCH  27  36
ENDBRANCH  22  23
ENDBRANCH  11  22
BRANCH  12  39
HETATM   39  C6  SGN C   3      20.354  88.223   9.876  1.00 42.65     0.227 C 
BRANCH  39  40
HETATM   40  O6  SGN C   3      20.850  89.305  10.694  1.00 51.09    -0.254 OA
BRANCH  40  41
HETATM   41  S2  SGN C   3      20.751  90.769  10.066  1.00 54.80     0.251 S 
HETATM   42  O4S SGN C   3      21.744  91.614  10.756  1.00 54.99    -0.572 OA
HETATM   43  O5S SGN C   3      19.356  91.244  10.308  1.00 53.99    -0.572 OA
HETATM   44  O6S SGN C   3      21.046  90.641   8.645  1.00 55.43    -0.572 OA
ENDBRANCH  40  41
ENDBRANCH  39  40
ENDBRANCH  12  39
ENDBRANCH   7   8
ENDBRANCH   4   7
BRANCH   3  45
HETATM   45  O3  IDS C   2      25.414  88.500  11.325  1.00 39.65    -0.390 OA
ATOM     46  H3  IDS C   2      24.896  88.553  10.532  1.00  0.00     0.210 HD
ENDBRANCH   3  45
BRANCH   5  47
HETATM   47  C6  IDS C   2      25.410  83.714  10.024  1.00 36.10     0.206 C 
HETATM   48  O6A IDS C   2      25.580  83.728   8.785  1.00 32.44    -0.646 OA
HETATM   49  O6B IDS C   2      24.866  82.770  10.647  1.00 33.44    -0.646 OA
ENDBRANCH   5  47
BRANCH   2  50
HETATM   50  O2  IDS C   2      26.987  87.801  13.521  1.00 43.59    -0.244 OA
BRANCH  50  51
HETATM   51  S   IDS C   2      28.238  88.788  13.428  1.00 44.11     0.252 S 
HETATM   52  O1S IDS C   2      28.087  89.787  14.541  1.00 44.48    -0.572 OA
HETATM   53  O2S IDS C   2      28.189  89.427  12.096  1.00 44.29    -0.572 OA
HETATM   54  O3S IDS C   2      29.429  87.974  13.592  1.00 44.74    -0.572 OA
ENDBRANCH  50  51
ENDBRANCH   2  50
BRANCH   1  55
HETATM   55  O4  SGN C   1      28.061  84.943  13.048  1.00 44.73    -0.348 OA
BRANCH  55  56
HETATM   56  C4  SGN C   1      28.390  83.949  14.043  1.00 48.25     0.186 C 
HETATM   57  C3  SGN C   1      29.377  82.933  13.455  1.00 48.43     0.178 C 
HETATM   58  C2  SGN C   1      29.849  81.970  14.543  1.00 48.58     0.181 C 
HETATM   59  C1  SGN C   1      30.399  82.720  15.756  1.00 50.40     0.283 C 
HETATM   60  O5  SGN C   1      29.422  83.645  16.248  1.00 50.82    -0.349 OA
HETATM   61  C5  SGN C   1      29.031  84.631  15.264  1.00 51.58     0.181 C 
BRANCH  57  62
HETATM   62  O3  SGN C   1      28.751  82.196  12.417  1.00 46.09    -0.391 OA
ATOM     63  H3  SGN C   1      28.837  81.266  12.596  1.00  0.00     0.210 HD
ENDBRANCH  57  62
BRANCH  58  64
HETATM   64  N2  SGN C   1      30.864  81.077  14.023  1.00 48.56    -0.289 N 
ATOM     65  H2  SGN C   1      31.754  81.411  13.652  1.00  0.00     0.175 HD
BRANCH  64  66
HETATM   66  S1  SGN C   1      30.463  79.473  14.079  1.00 47.67     0.205 S 
HETATM   67  O1S SGN C   1      31.732  78.715  14.020  1.00 47.59    -0.578 OA
HETATM   68  O2S SGN C   1      29.617  79.242  12.903  1.00 48.55    -0.578 OA
HETATM   69  O3S SGN C   1      29.737  79.263  15.350  1.00 47.08    -0.578 OA
ENDBRANCH  64  66
ENDBRANCH  58  64
BRANCH  59  70
HETATM   70  O1  SGN C   1      31.538  83.426  15.398  1.00 51.36    -0.369 OA
ATOM     71  H1  SGN C   1      31.389  84.357  15.512  1.00  0.00     0.212 HD
ENDBRANCH  59  70
BRANCH  61  72
HETATM   72  C6  SGN C   1      28.090  85.584  15.958  1.00 55.48     0.227 C 
BRANCH  72  73
HETATM   73  O6  SGN C   1      28.595  85.885  17.277  1.00 61.59    -0.254 OA
BRANCH  73  74
HETATM   74  S2  SGN C   1      28.404  87.397  17.745  1.00 65.98     0.251 S 
HETATM   75  O4S SGN C   1      27.050  87.868  17.209  1.00 65.09    -0.572 OA
HETATM   76  O5S SGN C   1      29.504  88.150  17.171  1.00 65.58    -0.572 OA
HETATM   77  O6S SGN C   1      28.447  87.404  19.305  1.00 65.84    -0.572 OA
ENDBRANCH  73  74
ENDBRANCH  72  73
ENDBRANCH  61  72
ENDBRANCH  55  56
ENDBRANCH   1  55
TORSDOF 27
ENDMDL
MODEL 46
REMARK VINA RESULT:      -5.6      8.097     14.503
REMARK  27 active torsions:
REMARK  status: ('A' for Active; 'I' for Inactive)
REMARK    1  A    between atoms: C1_1  and  O1_2 
REMARK    2  A    between atoms: S1_5  and  N2_7 
REMARK    3  A    between atoms: C2_6  and  N2_7 
REMARK    4  A    between atoms: S2_10  and  O6_22 
REMARK    5  A    between atoms: C3_11  and  O3_12 
REMARK    6  A    between atoms: C4_15  and  O4_16 
REMARK    7  A    between atoms: O4_16  and  C1_24 
REMARK    8  A    between atoms: C5_18  and  C6_21 
REMARK    9  A    between atoms: C6_21  and  O6_22 
REMARK   10  A    between atoms: C2_26  and  O2_27 
REMARK   11  A    between atoms: O2_27  and  S_40 
REMARK   12  A    between atoms: C3_29  and  O3_30 
REMARK   13  A    between atoms: C4_33  and  O4_34 
REMARK   14  A    between atoms: O4_34  and  C1_41 
REMARK   15  A    between atoms: C5_35  and  C6_37 
REMARK   16  A    between atoms: S1_43  and  N2_45 
REMARK   17  A    between atoms: C2_44  and  N2_45 
REMARK   18  A    between atoms: S2_48  and  O6_60 
REMARK   19  A    between atoms: C3_49  and  O3_50 
REMARK   20  A    between atoms: C4_53  and  O4_54 
REMARK   21  A    between atoms: O4_54  and  C1_62 
REMARK   22  A    between atoms: C5_56  and  C6_59 
REMARK   23  A    between atoms: C6_59  and  O6_60 
REMARK   24  A    between atoms: C2_64  and  O2_65 
REMARK   25  A    between atoms: O2_65  and  S_77 
REMARK   26  A    between atoms: C3_67  and  O3_68 
REMARK   27  A    between atoms: C5_72  and  C6_74 
ROOT
HETATM    1  C1  IDS C   2      36.404  72.048  20.497  1.00 40.81     0.294 C 
HETATM    2  C2  IDS C   2      37.725  71.581  21.114  1.00 40.20     0.231 C 
HETATM    3  C3  IDS C   2      37.657  70.107  21.502  1.00 39.01     0.185 C 
HETATM    4  C4  IDS C   2      36.540  69.858  22.535  1.00 37.65     0.195 C 
HETATM    5  C5  IDS C   2      35.515  70.998  22.478  1.00 35.99     0.257 C 
HETATM    6  O5  IDS C   2      35.278  71.373  21.100  1.00 39.00    -0.340 OA
ENDROOT
BRANCH   4   7
HETATM    7  O4  IDS C   2      35.889  68.592  22.258  1.00 35.98    -0.348 OA
BRANCH   7   8
HETATM    8  C1  SGN C   3      36.181  68.007  21.018  1.00 35.40     0.287 C 
HETATM    9  C2  SGN C   3      34.887  67.506  20.351  1.00 33.71     0.182 C 
HETATM   10  C3  SGN C   3      34.333  66.247  21.029  1.00 35.79     0.178 C 
HETATM   11  C4  SGN C   3      35.430  65.197  21.275  1.00 36.62     0.186 C 
HETATM   12  C5  SGN C   3      36.639  65.848  21.935  1.00 39.32     0.181 C 
HETATM   13  O5  SGN C   3      37.110  66.945  21.131  1.00 37.58    -0.349 OA
BRANCH   9  14
HETATM   14  N2  SGN C   3      33.882  68.545  20.407  1.00 29.28    -0.289 N 
ATOM     15  H2  SGN C   3      33.554  68.915  21.298  1.00  0.00     0.175 HD
BRANCH  14  16
HETATM   16  S1  SGN C   3      33.284  69.109  18.974  1.00 27.84     0.205 S 
HETATM   17  O1S SGN C   3      34.450  69.589  18.256  1.00 27.65    -0.578 OA
HETATM   18  O2S SGN C   3      32.344  70.207  19.347  1.00 27.72    -0.578 OA
HETATM   19  O3S SGN C   3      32.588  67.997  18.253  1.00 28.50    -0.578 OA
ENDBRANCH  14  16
ENDBRANCH   9  14
BRANCH  10  20
HETATM   20  O3  SGN C   3      33.296  65.691  20.223  1.00 34.89    -0.391 OA
ATOM     21  H3  SGN C   3      32.989  66.346  19.606  1.00  0.00     0.210 HD
ENDBRANCH  10  20
BRANCH  11  22
HETATM   22  O4  SGN C   3      34.921  64.179  22.156  1.00 37.13    -0.348 OA
BRANCH  22  23
HETATM   23  C1  UAP C   4      35.213  62.876  21.787  1.00 39.64     0.294 C 
HETATM   24  C2  UAP C   4      33.937  62.056  21.711  1.00 38.70     0.228 C 
HETATM   25  C3  UAP C   4      34.268  60.599  21.401  1.00 38.51     0.156 C 
HETATM   26  C4  UAP C   4      35.407  60.416  20.293  1.00 38.14     0.077 C 
HETATM   27  C5  UAP C   4      36.079  61.595  19.942  1.00 38.51     0.228 C 
HETATM   28  O5  UAP C   4      35.818  62.914  20.502  1.00 37.46    -0.343 OA
BRANCH  24  29
HETATM   29  O2  UAP C   4      33.246  62.080  23.001  1.00 40.54    -0.244 OA
BRANCH  29  30
HETATM   30  S   UAP C   4      33.902  61.417  24.301  1.00 40.49     0.252 S 
HETATM   31  O1S UAP C   4      32.843  60.648  24.971  1.00 40.89    -0.572 OA
HETATM   32  O2S UAP C   4      34.386  62.521  25.143  1.00 37.88    -0.572 OA
HETATM   33  O3S UAP C   4      35.000  60.553  23.839  1.00 37.47    -0.572 OA
ENDBRANCH  29  30
ENDBRANCH  24  29
BRANCH  25  34
HETATM   34  O3  UAP C   4      33.088  59.938  20.973  1.00 38.58    -0.393 OA
ATOM     35  H3  UAP C   4      32.344  60.305  21.436  1.00  0.00     0.210 HD
ENDBRANCH  25  34
BRANCH  27  36
HETATM   36  C6  UAP C   4      37.143  61.630  18.900  1.00 37.96     0.203 C 
HETATM   37  O6A UAP C   4      38.114  62.392  19.076  1.00 40.05    -0.646 OA
HETATM   38  O6B UAP C   4      37.012  60.897  17.897  1.00 36.71    -0.646 OA
ENDBRANCH  27  36
ENDBRANCH  22  23
ENDBRANCH  11  22
BRANCH  12  39
HETATM   39  C6  SGN C   3      37.803  64.920  22.143  1.00 42.65     0.227 C 
BRANCH  39  40
HETATM   40  O6  SGN C   3      38.812  65.704  22.816  1.00 51.09    -0.254 OA
BRANCH  40  41
HETATM   41  S2  SGN C   3      38.791  65.666  24.411  1.00 54.80     0.251 S 
HETATM   42  O4S SGN C   3      38.302  66.977  24.877  1.00 54.99    -0.572 OA
HETATM   43  O5S SGN C   3      40.196  65.410  24.850  1.00 53.99    -0.572 OA
HETATM   44  O6S SGN C   3      37.893  64.586  24.796  1.00 55.43    -0.572 OA
ENDBRANCH  40  41
ENDBRANCH  39  40
ENDBRANCH  12  39
ENDBRANCH   7   8
ENDBRANCH   4   7
BRANCH   3  45
HETATM   45  O3  IDS C   2      38.909  69.701  22.039  1.00 39.65    -0.390 OA
ATOM     46  H3  IDS C   2      38.765  69.192  22.828  1.00  0.00     0.210 HD
ENDBRANCH   3  45
BRANCH   5  47
HETATM   47  C6  IDS C   2      34.168  70.684  23.115  1.00 36.10     0.206 C 
HETATM   48  O6A IDS C   2      33.157  70.713  22.378  1.00 32.44    -0.646 OA
HETATM   49  O6B IDS C   2      34.138  70.398  24.335  1.00 33.44    -0.646 OA
ENDBRANCH   5  47
BRANCH   2  50
HETATM   50  O2  IDS C   2      38.804  71.750  20.149  1.00 43.59    -0.244 OA
BRANCH  50  51
HETATM   51  S   IDS C   2      40.065  72.653  20.527  1.00 44.11     0.252 S 
HETATM   52  O1S IDS C   2      40.646  72.081  21.789  1.00 44.48    -0.572 OA
HETATM   53  O2S IDS C   2      39.569  74.033  20.716  1.00 44.29    -0.572 OA
HETATM   54  O3S IDS C   2      40.995  72.563  19.416  1.00 44.74    -0.572 OA
ENDBRANCH  50  51
ENDBRANCH   2  50
BRANCH   1  55
HETATM   55  O4  SGN C   1      36.258  73.414  20.694  1.00 44.73    -0.348 OA
BRANCH  55  56
HETATM   56  C4  SGN C   1      35.348  74.123  19.824  1.00 48.25     0.186 C 
HETATM   57  C3  SGN C   1      34.214  74.740  20.651  1.00 48.43     0.178 C 
HETATM   58  C2  SGN C   1      33.335  75.619  19.763  1.00 48.58     0.181 C 
HETATM   59  C1  SGN C   1      34.163  76.653  19.002  1.00 50.40     0.283 C 
HETATM   60  O5  SGN C   1      35.198  76.002  18.254  1.00 50.82    -0.349 OA
HETATM   61  C5  SGN C   1      36.104  75.242  19.087  1.00 51.58     0.181 C 
BRANCH  57  62
HETATM   62  O3  SGN C   1      33.420  73.713  21.225  1.00 46.09    -0.391 OA
ATOM     63  H3  SGN C   1      33.938  73.237  21.865  1.00  0.00     0.210 HD
ENDBRANCH  57  62
BRANCH  58  64
HETATM   64  N2  SGN C   1      32.327  76.292  20.556  1.00 48.56    -0.289 N 
ATOM     65  H2  SGN C   1      32.560  76.926  21.321  1.00  0.00     0.175 HD
BRANCH  64  66
HETATM   66  S1  SGN C   1      30.768  75.949  20.123  1.00 47.67     0.205 S 
HETATM   67  O1S SGN C   1      30.644  74.475  20.116  1.00 47.59    -0.578 OA
HETATM   68  O2S SGN C   1      30.597  76.532  18.788  1.00 48.55    -0.578 OA
HETATM   69  O3S SGN C   1      29.897  76.584  21.136  1.00 47.08    -0.578 OA
ENDBRANCH  64  66
ENDBRANCH  58  64
BRANCH  59  70
HETATM   70  O1  SGN C   1      34.750  77.537  19.894  1.00 51.36    -0.369 OA
ATOM     71  H1  SGN C   1      34.114  77.812  20.544  1.00  0.00     0.212 HD
ENDBRANCH  59  70
BRANCH  61  72
HETATM   72  C6  SGN C   1      37.184  74.712  18.177  1.00 55.48     0.227 C 
BRANCH  72  73
HETATM   73  O6  SGN C   1      36.681  74.631  16.826  1.00 61.59    -0.254 OA
BRANCH  73  74
HETATM   74  S2  SGN C   1      36.461  73.153  16.273  1.00 65.98     0.251 S 
HETATM   75  O4S SGN C   1      34.961  72.860  16.350  1.00 65.09    -0.572 OA
HETATM   76  O5S SGN C   1      37.228  72.271  17.133  1.00 65.58    -0.572 OA
HETATM   77  O6S SGN C   1      36.983  73.129  14.802  1.00 65.84    -0.572 OA
ENDBRANCH  73  74
ENDBRANCH  72  73
ENDBRANCH  61  72
ENDBRANCH  55  56
ENDBRANCH   1  55
TORSDOF 27
ENDMDL
MODEL 47
REMARK VINA RESULT:      -5.6      2.722      4.366
REMARK  27 active torsions:
REMARK  status: ('A' for Active; 'I' for Inactive)
REMARK    1  A    between atoms: C1_1  and  O1_2 
REMARK    2  A    between atoms: S1_5  and  N2_7 
REMARK    3  A    between atoms: C2_6  and  N2_7 
REMARK    4  A    between atoms: S2_10  and  O6_22 
REMARK    5  A    between atoms: C3_11  and  O3_12 
REMARK    6  A    between atoms: C4_15  and  O4_16 
REMARK    7  A    between atoms: O4_16  and  C1_24 
REMARK    8  A    between atoms: C5_18  and  C6_21 
REMARK    9  A    between atoms: C6_21  and  O6_22 
REMARK   10  A    between atoms: C2_26  and  O2_27 
REMARK   11  A    between atoms: O2_27  and  S_40 
REMARK   12  A    between atoms: C3_29  and  O3_30 
REMARK   13  A    between atoms: C4_33  and  O4_34 
REMARK   14  A    between atoms: O4_34  and  C1_41 
REMARK   15  A    between atoms: C5_35  and  C6_37 
REMARK   16  A    between atoms: S1_43  and  N2_45 
REMARK   17  A    between atoms: C2_44  and  N2_45 
REMARK   18  A    between atoms: S2_48  and  O6_60 
REMARK   19  A    between atoms: C3_49  and  O3_50 
REMARK   20  A    between atoms: C4_53  and  O4_54 
REMARK   21  A    between atoms: O4_54  and  C1_62 
REMARK   22  A    between atoms: C5_56  and  C6_59 
REMARK   23  A    between atoms: C6_59  and  O6_60 
REMARK   24  A    between atoms: C2_64  and  O2_65 
REMARK   25  A    between atoms: O2_65  and  S_77 
REMARK   26  A    between atoms: C3_67  and  O3_68 
REMARK   27  A    between atoms: C5_72  and  C6_74 
ROOT
HETATM    1  C1  IDS C   2      27.398  82.075  13.667  1.00 40.81     0.294 C 
HETATM    2  C2  IDS C   2      27.868  81.642  12.275  1.00 40.20     0.231 C 
HETATM    3  C3  IDS C   2      28.699  80.364  12.350  1.00 39.01     0.185 C 
HETATM    4  C4  IDS C   2      29.949  80.568  13.229  1.00 37.65     0.195 C 
HETATM    5  C5  IDS C   2      29.738  81.764  14.166  1.00 35.99     0.257 C 
HETATM    6  O5  IDS C   2      28.382  81.752  14.674  1.00 39.00    -0.340 OA
ENDROOT
BRANCH   4   7
HETATM    7  O4  IDS C   2      30.206  79.370  14.004  1.00 35.98    -0.348 OA
BRANCH   7   8
HETATM    8  C1  SGN C   3      29.593  78.196  13.544  1.00 35.40     0.287 C 
HETATM    9  C2  SGN C   3      28.799  77.532  14.683  1.00 33.71     0.182 C 
HETATM   10  C3  SGN C   3      29.713  76.874  15.724  1.00 35.79     0.178 C 
HETATM   11  C4  SGN C   3      30.812  76.022  15.066  1.00 36.62     0.186 C 
HETATM   12  C5  SGN C   3      31.499  76.816  13.962  1.00 39.32     0.181 C 
HETATM   13  O5  SGN C   3      30.528  77.278  13.006  1.00 37.58    -0.349 OA
BRANCH   9  14
HETATM   14  N2  SGN C   3      27.982  78.525  15.345  1.00 29.28    -0.289 N 
ATOM     15  H2  SGN C   3      28.403  79.300  15.857  1.00  0.00     0.175 HD
BRANCH  14  16
HETATM   16  S1  SGN C   3      26.342  78.360  15.241  1.00 27.84     0.205 S 
HETATM   17  O1S SGN C   3      26.013  77.354  16.233  1.00 27.65    -0.578 OA
HETATM   18  O2S SGN C   3      26.082  77.900  13.844  1.00 27.72    -0.578 OA
HETATM   19  O3S SGN C   3      25.690  79.677  15.527  1.00 28.50    -0.578 OA
ENDBRANCH  14  16
ENDBRANCH   9  14
BRANCH  10  20
HETATM   20  O3  SGN C   3      28.930  76.068  16.602  1.00 34.89    -0.391 OA
ATOM     21  H3  SGN C   3      29.310  76.088  17.473  1.00  0.00     0.210 HD
ENDBRANCH  10  20
BRANCH  11  22
HETATM   22  O4  SGN C   3      31.795  75.671  16.056  1.00 37.13    -0.348 OA
BRANCH  22  23
HETATM   23  C1  UAP C   4      31.954  74.312  16.279  1.00 39.64     0.294 C 
HETATM   24  C2  UAP C   4      31.411  73.941  17.648  1.00 38.70     0.228 C 
HETATM   25  C3  UAP C   4      31.675  72.465  17.932  1.00 38.51     0.156 C 
HETATM   26  C4  UAP C   4      31.413  71.507  16.678  1.00 38.14     0.077 C 
HETATM   27  C5  UAP C   4      31.203  72.176  15.464  1.00 38.51     0.228 C 
HETATM   28  O5  UAP C   4      31.213  73.621  15.282  1.00 37.46    -0.343 OA
BRANCH  24  29
HETATM   29  O2  UAP C   4      32.096  74.713  18.687  1.00 40.54    -0.244 OA
BRANCH  29  30
HETATM   30  S   UAP C   4      31.269  75.568  19.758  1.00 40.49     0.252 S 
HETATM   31  O1S UAP C   4      30.254  74.671  20.331  1.00 40.89    -0.572 OA
HETATM   32  O2S UAP C   4      30.655  76.685  19.026  1.00 37.88    -0.572 OA
HETATM   33  O3S UAP C   4      32.228  76.033  20.773  1.00 37.47    -0.572 OA
ENDBRANCH  29  30
ENDBRANCH  24  29
BRANCH  25  34
HETATM   34  O3  UAP C   4      30.859  72.051  19.016  1.00 38.58    -0.393 OA
ATOM     35  H3  UAP C   4      30.957  71.114  19.137  1.00  0.00     0.210 HD
ENDBRANCH  25  34
BRANCH  27  36
HETATM   36  C6  UAP C   4      30.904  71.455  14.195  1.00 37.96     0.203 C 
HETATM   37  O6A UAP C   4      30.795  70.214  14.235  1.00 40.05    -0.646 OA
HETATM   38  O6B UAP C   4      30.777  72.127  13.149  1.00 36.71    -0.646 OA
ENDBRANCH  27  36
ENDBRANCH  22  23
ENDBRANCH  11  22
BRANCH  12  39
HETATM   39  C6  SGN C   3      32.537  76.042  13.198  1.00 42.65     0.227 C 
BRANCH  39  40
HETATM   40  O6  SGN C   3      31.803  75.100  12.387  1.00 51.09    -0.254 OA
BRANCH  40  41
HETATM   41  S2  SGN C   3      32.205  75.030  10.844  1.00 54.80     0.251 S 
HETATM   42  O4S SGN C   3      33.552  75.615  10.712  1.00 54.99    -0.572 OA
HETATM   43  O5S SGN C   3      31.181  75.822  10.100  1.00 53.99    -0.572 OA
HETATM   44  O6S SGN C   3      32.188  73.623  10.466  1.00 55.43    -0.572 OA
ENDBRANCH  40  41
ENDBRANCH  39  40
ENDBRANCH  12  39
ENDBRANCH   7   8
ENDBRANCH   4   7
BRANCH   3  45
HETATM   45  O3  IDS C   2      29.088  79.975  11.040  1.00 39.65    -0.390 OA
ATOM     46  H3  IDS C   2      28.528  80.402  10.403  1.00  0.00     0.210 HD
ENDBRANCH   3  45
BRANCH   5  47
HETATM   47  C6  IDS C   2      30.683  81.821  15.359  1.00 36.10     0.206 C 
HETATM   48  O6A IDS C   2      30.251  81.415  16.461  1.00 32.44    -0.646 OA
HETATM   49  O6B IDS C   2      31.846  82.255  15.178  1.00 33.44    -0.646 OA
ENDBRANCH   5  47
BRANCH   2  50
HETATM   50  O2  IDS C   2      26.713  81.387  11.425  1.00 43.59    -0.244 OA
BRANCH  50  51
HETATM   51  S   IDS C   2      26.799  81.703   9.862  1.00 44.11     0.252 S 
HETATM   52  O1S IDS C   2      25.564  82.482   9.509  1.00 44.48    -0.572 OA
HETATM   53  O2S IDS C   2      26.859  80.404   9.160  1.00 44.29    -0.572 OA
HETATM   54  O3S IDS C   2      28.007  82.482   9.656  1.00 44.74    -0.572 OA
ENDBRANCH  50  51
ENDBRANCH   2  50
BRANCH   1  55
HETATM   55  O4  SGN C   1      27.187  83.446  13.678  1.00 44.73    -0.348 OA
BRANCH  55  56
HETATM   56  C4  SGN C   1      26.562  84.038  12.519  1.00 48.25     0.186 C 
HETATM   57  C3  SGN C   1      25.075  84.288  12.802  1.00 48.43     0.178 C 
HETATM   58  C2  SGN C   1      24.441  85.053  11.641  1.00 48.58     0.181 C 
HETATM   59  C1  SGN C   1      25.221  86.326  11.316  1.00 50.40     0.283 C 
HETATM   60  O5  SGN C   1      26.595  86.012  11.062  1.00 50.82    -0.349 OA
HETATM   61  C5  SGN C   1      27.246  85.374  12.186  1.00 51.58     0.181 C 
BRANCH  57  62
HETATM   62  O3  SGN C   1      24.401  83.051  12.971  1.00 46.09    -0.391 OA
ATOM     63  H3  SGN C   1      24.117  82.970  13.875  1.00  0.00     0.210 HD
ENDBRANCH  57  62
BRANCH  58  64
HETATM   64  N2  SGN C   1      23.066  85.390  11.948  1.00 48.56    -0.289 N 
ATOM     65  H2  SGN C   1      22.813  86.095  12.640  1.00  0.00     0.175 HD
BRANCH  64  66
HETATM   66  S1  SGN C   1      21.941  84.537  11.086  1.00 47.67     0.205 S 
HETATM   67  O1S SGN C   1      20.803  85.453  10.850  1.00 47.59    -0.578 OA
HETATM   68  O2S SGN C   1      21.578  83.399  11.936  1.00 48.55    -0.578 OA
HETATM   69  O3S SGN C   1      22.599  84.119   9.828  1.00 47.08    -0.578 OA
ENDBRANCH  64  66
ENDBRANCH  58  64
BRANCH  59  70
HETATM   70  O1  SGN C   1      25.157  87.205  12.388  1.00 51.36    -0.369 OA
ATOM     71  H1  SGN C   1      24.718  88.005  12.125  1.00  0.00     0.212 HD
ENDBRANCH  59  70
BRANCH  61  72
HETATM   72  C6  SGN C   1      28.696  85.207  11.806  1.00 55.48     0.227 C 
BRANCH  72  73
HETATM   73  O6  SGN C   1      29.093  86.281  10.927  1.00 61.59    -0.254 OA
BRANCH  73  74
HETATM   74  S2  SGN C   1      29.790  87.521  11.646  1.00 65.98     0.251 S 
HETATM   75  O4S SGN C   1      30.829  88.082  10.672  1.00 65.09    -0.572 OA
HETATM   76  O5S SGN C   1      30.406  87.005  12.855  1.00 65.58    -0.572 OA
HETATM   77  O6S SGN C   1      28.669  88.560  11.963  1.00 65.84    -0.572 OA
ENDBRANCH  73  74
ENDBRANCH  72  73
ENDBRANCH  61  72
ENDBRANCH  55  56
ENDBRANCH   1  55
TORSDOF 27
ENDMDL
MODEL 48
REMARK VINA RESULT:      -5.6      8.436     15.327
REMARK  27 active torsions:
REMARK  status: ('A' for Active; 'I' for Inactive)
REMARK    1  A    between atoms: C1_1  and  O1_2 
REMARK    2  A    between atoms: S1_5  and  N2_7 
REMARK    3  A    between atoms: C2_6  and  N2_7 
REMARK    4  A    between atoms: S2_10  and  O6_22 
REMARK    5  A    between atoms: C3_11  and  O3_12 
REMARK    6  A    between atoms: C4_15  and  O4_16 
REMARK    7  A    between atoms: O4_16  and  C1_24 
REMARK    8  A    between atoms: C5_18  and  C6_21 
REMARK    9  A    between atoms: C6_21  and  O6_22 
REMARK   10  A    between atoms: C2_26  and  O2_27 
REMARK   11  A    between atoms: O2_27  and  S_40 
REMARK   12  A    between atoms: C3_29  and  O3_30 
REMARK   13  A    between atoms: C4_33  and  O4_34 
REMARK   14  A    between atoms: O4_34  and  C1_41 
REMARK   15  A    between atoms: C5_35  and  C6_37 
REMARK   16  A    between atoms: S1_43  and  N2_45 
REMARK   17  A    between atoms: C2_44  and  N2_45 
REMARK   18  A    between atoms: S2_48  and  O6_60 
REMARK   19  A    between atoms: C3_49  and  O3_50 
REMARK   20  A    between atoms: C4_53  and  O4_54 
REMARK   21  A    between atoms: O4_54  and  C1_62 
REMARK   22  A    between atoms: C5_56  and  C6_59 
REMARK   23  A    between atoms: C6_59  and  O6_60 
REMARK   24  A    between atoms: C2_64  and  O2_65 
REMARK   25  A    between atoms: O2_65  and  S_77 
REMARK   26  A    between atoms: C3_67  and  O3_68 
REMARK   27  A    between atoms: C5_72  and  C6_74 
ROOT
HETATM    1  C1  IDS C   2      36.523  71.339  20.890  1.00 40.81     0.294 C 
HETATM    2  C2  IDS C   2      37.920  71.139  21.484  1.00 40.20     0.231 C 
HETATM    3  C3  IDS C   2      37.984  69.863  22.317  1.00 39.01     0.185 C 
HETATM    4  C4  IDS C   2      36.978  69.914  23.485  1.00 37.65     0.195 C 
HETATM    5  C5  IDS C   2      35.879  70.940  23.181  1.00 35.99     0.257 C 
HETATM    6  O5  IDS C   2      35.501  70.851  21.787  1.00 39.00    -0.340 OA
ENDROOT
BRANCH   4   7
HETATM    7  O4  IDS C   2      36.391  68.603  23.685  1.00 35.98    -0.348 OA
BRANCH   7   8
HETATM    8  C1  SGN C   3      36.672  67.645  22.701  1.00 35.40     0.287 C 
HETATM    9  C2  SGN C   3      35.391  66.876  22.331  1.00 33.71     0.182 C 
HETATM   10  C3  SGN C   3      34.961  65.897  23.430  1.00 35.79     0.178 C 
HETATM   11  C4  SGN C   3      36.143  65.057  23.946  1.00 36.62     0.186 C 
HETATM   12  C5  SGN C   3      37.327  65.961  24.265  1.00 39.32     0.181 C 
HETATM   13  O5  SGN C   3      37.682  66.739  23.108  1.00 37.58    -0.349 OA
BRANCH   9  14
HETATM   14  N2  SGN C   3      34.315  67.813  22.095  1.00 29.28    -0.289 N 
ATOM     15  H2  SGN C   3      33.994  68.442  22.831  1.00  0.00     0.175 HD
BRANCH  14  16
HETATM   16  S1  SGN C   3      33.626  67.827  20.595  1.00 27.84     0.205 S 
HETATM   17  O1S SGN C   3      32.673  66.733  20.621  1.00 27.65    -0.578 OA
HETATM   18  O2S SGN C   3      34.752  67.589  19.644  1.00 27.72    -0.578 OA
HETATM   19  O3S SGN C   3      32.967  69.151  20.362  1.00 28.50    -0.578 OA
ENDBRANCH  14  16
ENDBRANCH   9  14
BRANCH  10  20
HETATM   20  O3  SGN C   3      33.935  65.043  22.931  1.00 34.89    -0.391 OA
ATOM     21  H3  SGN C   3      33.136  65.543  22.812  1.00  0.00     0.210 HD
ENDBRANCH  10  20
BRANCH  11  22
HETATM   22  O4  SGN C   3      35.749  64.378  25.151  1.00 37.13    -0.348 OA
BRANCH  22  23
HETATM   23  C1  UAP C   4      36.145  63.053  25.242  1.00 39.64     0.294 C 
HETATM   24  C2  UAP C   4      36.529  62.527  23.870  1.00 38.70     0.228 C 
HETATM   25  C3  UAP C   4      36.872  61.043  23.955  1.00 38.51     0.156 C 
HETATM   26  C4  UAP C   4      37.744  60.652  25.236  1.00 38.14     0.077 C 
HETATM   27  C5  UAP C   4      37.872  61.671  26.192  1.00 38.51     0.228 C 
HETATM   28  O5  UAP C   4      37.281  62.998  26.095  1.00 37.46    -0.343 OA
BRANCH  24  29
HETATM   29  O2  UAP C   4      35.401  62.661  22.947  1.00 40.54    -0.244 OA
BRANCH  29  30
HETATM   30  S   UAP C   4      34.157  61.655  23.011  1.00 40.49     0.252 S 
HETATM   31  O1S UAP C   4      33.728  61.595  24.416  1.00 40.89    -0.572 OA
HETATM   32  O2S UAP C   4      34.641  60.351  22.536  1.00 37.88    -0.572 OA
HETATM   33  O3S UAP C   4      33.109  62.207  22.139  1.00 37.47    -0.572 OA
ENDBRANCH  29  30
ENDBRANCH  24  29
BRANCH  25  34
HETATM   34  O3  UAP C   4      37.569  60.662  22.779  1.00 38.58    -0.393 OA
ATOM     35  H3  UAP C   4      36.944  60.333  22.143  1.00  0.00     0.210 HD
ENDBRANCH  25  34
BRANCH  27  36
HETATM   36  C6  UAP C   4      38.680  61.507  27.433  1.00 37.96     0.203 C 
HETATM   37  O6A UAP C   4      39.777  60.921  27.348  1.00 40.05    -0.646 OA
HETATM   38  O6B UAP C   4      38.221  61.963  28.501  1.00 36.71    -0.646 OA
ENDBRANCH  27  36
ENDBRANCH  22  23
ENDBRANCH  11  22
BRANCH  12  39
HETATM   39  C6  SGN C   3      38.565  65.226  24.699  1.00 42.65     0.227 C 
BRANCH  39  40
HETATM   40  O6  SGN C   3      39.673  65.957  24.130  1.00 51.09    -0.254 OA
BRANCH  40  41
HETATM   41  S2  SGN C   3      40.789  65.089  23.391  1.00 54.80     0.251 S 
HETATM   42  O4S SGN C   3      42.041  65.868  23.412  1.00 54.99    -0.572 OA
HETATM   43  O5S SGN C   3      40.301  64.863  21.998  1.00 53.99    -0.572 OA
HETATM   44  O6S SGN C   3      40.917  63.843  24.134  1.00 55.43    -0.572 OA
ENDBRANCH  40  41
ENDBRANCH  39  40
ENDBRANCH  12  39
ENDBRANCH   7   8
ENDBRANCH   4   7
BRANCH   3  45
HETATM   45  O3  IDS C   2      39.301  69.692  22.823  1.00 39.65    -0.390 OA
ATOM     46  H3  IDS C   2      39.275  69.137  23.593  1.00  0.00     0.210 HD
ENDBRANCH   3  45
BRANCH   5  47
HETATM   47  C6  IDS C   2      34.615  70.796  24.018  1.00 36.10     0.206 C 
HETATM   48  O6A IDS C   2      33.542  70.574  23.414  1.00 32.44    -0.646 OA
HETATM   49  O6B IDS C   2      34.712  70.891  25.265  1.00 33.44    -0.646 OA
ENDBRANCH   5  47
BRANCH   2  50
HETATM   50  O2  IDS C   2      38.899  71.032  20.410  1.00 43.59    -0.244 OA
BRANCH  50  51
HETATM   51  S   IDS C   2      40.344  71.685  20.592  1.00 44.11     0.252 S 
HETATM   52  O1S IDS C   2      41.314  70.551  20.767  1.00 44.48    -0.572 OA
HETATM   53  O2S IDS C   2      40.280  72.553  21.786  1.00 44.29    -0.572 OA
HETATM   54  O3S IDS C   2      40.617  72.447  19.386  1.00 44.74    -0.572 OA
ENDBRANCH  50  51
ENDBRANCH   2  50
BRANCH   1  55
HETATM   55  O4  SGN C   1      36.305  72.691  20.666  1.00 44.73    -0.348 OA
BRANCH  55  56
HETATM   56  C4  SGN C   1      35.228  73.057  19.775  1.00 48.25     0.186 C 
HETATM   57  C3  SGN C   1      34.428  74.218  20.378  1.00 48.43     0.178 C 
HETATM   58  C2  SGN C   1      33.387  74.714  19.375  1.00 48.58     0.181 C 
HETATM   59  C1  SGN C   1      34.020  75.047  18.026  1.00 50.40     0.283 C 
HETATM   60  O5  SGN C   1      34.745  73.916  17.528  1.00 50.82    -0.349 OA
HETATM   61  C5  SGN C   1      35.805  73.489  18.416  1.00 51.58     0.181 C 
BRANCH  57  62
HETATM   62  O3  SGN C   1      33.774  73.792  21.562  1.00 46.09    -0.391 OA
ATOM     63  H3  SGN C   1      32.870  73.575  21.360  1.00  0.00     0.210 HD
ENDBRANCH  57  62
BRANCH  58  64
HETATM   64  N2  SGN C   1      32.701  75.880  19.893  1.00 48.56    -0.289 N 
ATOM     65  H2  SGN C   1      33.197  76.692  20.261  1.00  0.00     0.175 HD
BRANCH  64  66
HETATM   66  S1  SGN C   1      31.050  75.789  19.838  1.00 47.67     0.205 S 
HETATM   67  O1S SGN C   1      30.634  76.394  18.554  1.00 47.59    -0.578 OA
HETATM   68  O2S SGN C   1      30.579  76.553  20.997  1.00 48.55    -0.578 OA
HETATM   69  O3S SGN C   1      30.703  74.354  19.924  1.00 47.08    -0.578 OA
ENDBRANCH  64  66
ENDBRANCH  58  64
BRANCH  59  70
HETATM   70  O1  SGN C   1      34.899  76.111  18.167  1.00 51.36    -0.369 OA
ATOM     71  H1  SGN C   1      35.727  75.802  18.515  1.00  0.00     0.212 HD
ENDBRANCH  59  70
BRANCH  61  72
HETATM   72  C6  SGN C   1      36.534  72.372  17.712  1.00 55.48     0.227 C 
BRANCH  72  73
HETATM   73  O6  SGN C   1      35.763  71.936  16.571  1.00 61.59    -0.254 OA
BRANCH  73  74
HETATM   74  S2  SGN C   1      35.164  70.464  16.683  1.00 65.98     0.251 S 
HETATM   75  O4S SGN C   1      36.217  69.600  17.381  1.00 65.09    -0.572 OA
HETATM   76  O5S SGN C   1      34.912  70.016  15.325  1.00 65.58    -0.572 OA
HETATM   77  O6S SGN C   1      33.848  70.564  17.516  1.00 65.84    -0.572 OA
ENDBRANCH  73  74
ENDBRANCH  72  73
ENDBRANCH  61  72
ENDBRANCH  55  56
ENDBRANCH   1  55
TORSDOF 27
ENDMDL
MODEL 49
REMARK VINA RESULT:      -5.6      5.990     11.767
REMARK  27 active torsions:
REMARK  status: ('A' for Active; 'I' for Inactive)
REMARK    1  A    between atoms: C1_1  and  O1_2 
REMARK    2  A    between atoms: S1_5  and  N2_7 
REMARK    3  A    between atoms: C2_6  and  N2_7 
REMARK    4  A    between atoms: S2_10  and  O6_22 
REMARK    5  A    between atoms: C3_11  and  O3_12 
REMARK    6  A    between atoms: C4_15  and  O4_16 
REMARK    7  A    between atoms: O4_16  and  C1_24 
REMARK    8  A    between atoms: C5_18  and  C6_21 
REMARK    9  A    between atoms: C6_21  and  O6_22 
REMARK   10  A    between atoms: C2_26  and  O2_27 
REMARK   11  A    between atoms: O2_27  and  S_40 
REMARK   12  A    between atoms: C3_29  and  O3_30 
REMARK   13  A    between atoms: C4_33  and  O4_34 
REMARK   14  A    between atoms: O4_34  and  C1_41 
REMARK   15  A    between atoms: C5_35  and  C6_37 
REMARK   16  A    between atoms: S1_43  and  N2_45 
REMARK   17  A    between atoms: C2_44  and  N2_45 
REMARK   18  A    between atoms: S2_48  and  O6_60 
REMARK   19  A    between atoms: C3_49  and  O3_50 
REMARK   20  A    between atoms: C4_53  and  O4_54 
REMARK   21  A    between atoms: O4_54  and  C1_62 
REMARK   22  A    between atoms: C5_56  and  C6_59 
REMARK   23  A    between atoms: C6_59  and  O6_60 
REMARK   24  A    between atoms: C2_64  and  O2_65 
REMARK   25  A    between atoms: O2_65  and  S_77 
REMARK   26  A    between atoms: C3_67  and  O3_68 
REMARK   27  A    between atoms: C5_72  and  C6_74 
ROOT
HETATM    1  C1  IDS C   2      32.312  73.433  17.306  1.00 40.81     0.294 C 
HETATM    2  C2  IDS C   2      31.486  73.038  18.533  1.00 40.20     0.231 C 
HETATM    3  C3  IDS C   2      32.388  72.591  19.680  1.00 39.01     0.185 C 
HETATM    4  C4  IDS C   2      33.240  71.372  19.271  1.00 37.65     0.195 C 
HETATM    5  C5  IDS C   2      33.333  71.291  17.742  1.00 35.99     0.257 C 
HETATM    6  O5  IDS C   2      33.500  72.620  17.193  1.00 39.00    -0.340 OA
ENDROOT
BRANCH   4   7
HETATM    7  O4  IDS C   2      34.567  71.486  19.843  1.00 35.98    -0.348 OA
BRANCH   7   8
HETATM    8  C1  SGN C   3      34.832  72.665  20.556  1.00 35.40     0.287 C 
HETATM    9  C2  SGN C   3      36.091  73.350  19.996  1.00 33.71     0.182 C 
HETATM   10  C3  SGN C   3      37.377  72.606  20.377  1.00 35.79     0.178 C 
HETATM   11  C4  SGN C   3      37.404  72.231  21.868  1.00 36.62     0.186 C 
HETATM   12  C5  SGN C   3      36.091  71.567  22.265  1.00 39.32     0.181 C 
HETATM   13  O5  SGN C   3      34.984  72.428  21.944  1.00 37.58    -0.349 OA
BRANCH   9  14
HETATM   14  N2  SGN C   3      36.003  73.420  18.555  1.00 29.28    -0.289 N 
ATOM     15  H2  SGN C   3      35.624  72.644  18.011  1.00  0.00     0.175 HD
BRANCH  14  16
HETATM   16  S1  SGN C   3      36.538  74.799  17.820  1.00 27.84     0.205 S 
HETATM   17  O1S SGN C   3      37.769  74.406  17.159  1.00 27.65    -0.578 OA
HETATM   18  O2S SGN C   3      36.765  75.771  18.930  1.00 27.72    -0.578 OA
HETATM   19  O3S SGN C   3      35.502  75.282  16.854  1.00 28.50    -0.578 OA
ENDBRANCH  14  16
ENDBRANCH   9  14
BRANCH  10  20
HETATM   20  O3  SGN C   3      38.506  73.414  20.055  1.00 34.89    -0.391 OA
ATOM     21  H3  SGN C   3      38.952  73.668  20.855  1.00  0.00     0.210 HD
ENDBRANCH  10  20
BRANCH  11  22
HETATM   22  O4  SGN C   3      38.476  71.300  22.102  1.00 37.13    -0.348 OA
BRANCH  22  23
HETATM   23  C1  UAP C   4      39.457  71.734  22.979  1.00 39.64     0.294 C 
HETATM   24  C2  UAP C   4      40.338  70.570  23.396  1.00 38.70     0.228 C 
HETATM   25  C3  UAP C   4      41.356  71.029  24.436  1.00 38.51     0.156 C 
HETATM   26  C4  UAP C   4      42.008  72.454  24.118  1.00 38.14     0.077 C 
HETATM   27  C5  UAP C   4      41.395  73.160  23.073  1.00 38.51     0.228 C 
HETATM   28  O5  UAP C   4      40.251  72.697  22.299  1.00 37.46    -0.343 OA
BRANCH  24  29
HETATM   29  O2  UAP C   4      39.526  69.521  24.016  1.00 40.54    -0.244 OA
BRANCH  29  30
HETATM   30  S   UAP C   4      39.516  68.031  23.431  1.00 40.49     0.252 S 
HETATM   31  O1S UAP C   4      38.601  68.029  22.280  1.00 40.89    -0.572 OA
HETATM   32  O2S UAP C   4      39.033  67.156  24.509  1.00 37.88    -0.572 OA
HETATM   33  O3S UAP C   4      40.897  67.712  23.036  1.00 37.47    -0.572 OA
ENDBRANCH  29  30
ENDBRANCH  24  29
BRANCH  25  34
HETATM   34  O3  UAP C   4      42.384  70.056  24.537  1.00 38.58    -0.393 OA
ATOM     35  H3  UAP C   4      43.223  70.475  24.386  1.00  0.00     0.210 HD
ENDBRANCH  25  34
BRANCH  27  36
HETATM   36  C6  UAP C   4      41.886  74.486  22.606  1.00 37.96     0.203 C 
HETATM   37  O6A UAP C   4      41.167  75.138  21.823  1.00 40.05    -0.646 OA
HETATM   38  O6B UAP C   4      42.997  74.883  23.018  1.00 36.71    -0.646 OA
ENDBRANCH  27  36
ENDBRANCH  22  23
ENDBRANCH  11  22
BRANCH  12  39
HETATM   39  C6  SGN C   3      35.984  71.236  23.728  1.00 42.65     0.227 C 
BRANCH  39  40
HETATM   40  O6  SGN C   3      36.206  69.813  23.823  1.00 51.09    -0.254 OA
BRANCH  40  41
HETATM   41  S2  SGN C   3      35.504  69.067  25.048  1.00 54.80     0.251 S 
HETATM   42  O4S SGN C   3      34.555  70.017  25.657  1.00 54.99    -0.572 OA
HETATM   43  O5S SGN C   3      36.593  68.687  25.996  1.00 53.99    -0.572 OA
HETATM   44  O6S SGN C   3      34.824  67.901  24.499  1.00 55.43    -0.572 OA
ENDBRANCH  40  41
ENDBRANCH  39  40
ENDBRANCH  12  39
ENDBRANCH   7   8
ENDBRANCH   4   7
BRANCH   3  45
HETATM   45  O3  IDS C   2      31.591  72.264  20.810  1.00 39.65    -0.390 OA
ATOM     46  H3  IDS C   2      31.043  73.006  21.037  1.00  0.00     0.210 HD
ENDBRANCH   3  45
BRANCH   5  47
HETATM   47  C6  IDS C   2      34.464  70.421  17.211  1.00 36.10     0.206 C 
HETATM   48  O6A IDS C   2      34.392  69.189  17.414  1.00 32.44    -0.646 OA
HETATM   49  O6B IDS C   2      35.399  70.976  16.587  1.00 33.44    -0.646 OA
ENDBRANCH   5  47
BRANCH   2  50
HETATM   50  O2  IDS C   2      30.703  74.180  18.987  1.00 43.59    -0.244 OA
BRANCH  50  51
HETATM   51  S   IDS C   2      31.432  75.567  19.286  1.00 44.11     0.252 S 
HETATM   52  O1S IDS C   2      31.774  75.572  20.749  1.00 44.48    -0.572 OA
HETATM   53  O2S IDS C   2      30.481  76.642  18.933  1.00 44.29    -0.572 OA
HETATM   54  O3S IDS C   2      32.621  75.607  18.454  1.00 44.74    -0.572 OA
ENDBRANCH  50  51
ENDBRANCH   2  50
BRANCH   1  55
HETATM   55  O4  SGN C   1      31.548  73.263  16.160  1.00 44.73    -0.348 OA
BRANCH  55  56
HETATM   56  C4  SGN C   1      31.932  74.007  14.983  1.00 48.25     0.186 C 
HETATM   57  C3  SGN C   1      32.442  73.043  13.904  1.00 48.43     0.178 C 
HETATM   58  C2  SGN C   1      32.703  73.803  12.604  1.00 48.58     0.181 C 
HETATM   59  C1  SGN C   1      31.481  74.610  12.170  1.00 50.40     0.283 C 
HETATM   60  O5  SGN C   1      31.067  75.485  13.226  1.00 50.82    -0.349 OA
HETATM   61  C5  SGN C   1      30.718  74.780  14.440  1.00 51.58     0.181 C 
BRANCH  57  62
HETATM   62  O3  SGN C   1      33.644  72.426  14.335  1.00 46.09    -0.391 OA
ATOM     63  H3  SGN C   1      33.869  72.748  15.201  1.00  0.00     0.210 HD
ENDBRANCH  57  62
BRANCH  58  64
HETATM   64  N2  SGN C   1      33.079  72.884  11.549  1.00 48.56    -0.289 N 
ATOM     65  H2  SGN C   1      32.564  72.025  11.356  1.00  0.00     0.175 HD
BRANCH  64  66
HETATM   66  S1  SGN C   1      34.412  73.341  10.682  1.00 47.67     0.205 S 
HETATM   67  O1S SGN C   1      33.915  73.992   9.449  1.00 47.59    -0.578 OA
HETATM   68  O2S SGN C   1      35.142  72.100  10.405  1.00 48.55    -0.578 OA
HETATM   69  O3S SGN C   1      35.177  74.271  11.541  1.00 47.08    -0.578 OA
ENDBRANCH  64  66
ENDBRANCH  58  64
BRANCH  59  70
HETATM   70  O1  SGN C   1      30.433  73.754  11.867  1.00 51.36    -0.369 OA
ATOM     71  H1  SGN C   1      30.518  73.441  10.974  1.00  0.00     0.212 HD
ENDBRANCH  59  70
BRANCH  61  72
HETATM   72  C6  SGN C   1      30.208  75.816  15.410  1.00 55.48     0.227 C 
BRANCH  72  73
HETATM   73  O6  SGN C   1      31.088  76.961  15.400  1.00 61.59    -0.254 OA
BRANCH  73  74
HETATM   74  S2  SGN C   1      30.366  78.371  15.579  1.00 65.98     0.251 S 
HETATM   75  O4S SGN C   1      28.935  78.089  16.043  1.00 65.09    -0.572 OA
HETATM   76  O5S SGN C   1      30.396  79.019  14.281  1.00 65.58    -0.572 OA
HETATM   77  O6S SGN C   1      31.177  79.170  16.647  1.00 65.84    -0.572 OA
ENDBRANCH  73  74
ENDBRANCH  72  73
ENDBRANCH  61  72
ENDBRANCH  55  56
ENDBRANCH   1  55
TORSDOF 27
ENDMDL
MODEL 50
REMARK VINA RESULT:      -5.5      5.067     10.873
REMARK  27 active torsions:
REMARK  status: ('A' for Active; 'I' for Inactive)
REMARK    1  A    between atoms: C1_1  and  O1_2 
REMARK    2  A    between atoms: S1_5  and  N2_7 
REMARK    3  A    between atoms: C2_6  and  N2_7 
REMARK    4  A    between atoms: S2_10  and  O6_22 
REMARK    5  A    between atoms: C3_11  and  O3_12 
REMARK    6  A    between atoms: C4_15  and  O4_16 
REMARK    7  A    between atoms: O4_16  and  C1_24 
REMARK    8  A    between atoms: C5_18  and  C6_21 
REMARK    9  A    between atoms: C6_21  and  O6_22 
REMARK   10  A    between atoms: C2_26  and  O2_27 
REMARK   11  A    between atoms: O2_27  and  S_40 
REMARK   12  A    between atoms: C3_29  and  O3_30 
REMARK   13  A    between atoms: C4_33  and  O4_34 
REMARK   14  A    between atoms: O4_34  and  C1_41 
REMARK   15  A    between atoms: C5_35  and  C6_37 
REMARK   16  A    between atoms: S1_43  and  N2_45 
REMARK   17  A    between atoms: C2_44  and  N2_45 
REMARK   18  A    between atoms: S2_48  and  O6_60 
REMARK   19  A    between atoms: C3_49  and  O3_50 
REMARK   20  A    between atoms: C4_53  and  O4_54 
REMARK   21  A    between atoms: O4_54  and  C1_62 
REMARK   22  A    between atoms: C5_56  and  C6_59 
REMARK   23  A    between atoms: C6_59  and  O6_60 
REMARK   24  A    between atoms: C2_64  and  O2_65 
REMARK   25  A    between atoms: O2_65  and  S_77 
REMARK   26  A    between atoms: C3_67  and  O3_68 
REMARK   27  A    between atoms: C5_72  and  C6_74 
ROOT
HETATM    1  C1  IDS C   2      32.242  74.960  18.679  1.00 40.81     0.294 C 
HETATM    2  C2  IDS C   2      32.745  73.555  19.017  1.00 40.20     0.231 C 
HETATM    3  C3  IDS C   2      34.264  73.471  18.893  1.00 39.01     0.185 C 
HETATM    4  C4  IDS C   2      34.720  73.804  17.458  1.00 37.65     0.195 C 
HETATM    5  C5  IDS C   2      33.629  74.606  16.737  1.00 35.99     0.257 C 
HETATM    6  O5  IDS C   2      33.051  75.570  17.649  1.00 39.00    -0.340 OA
ENDROOT
BRANCH   4   7
HETATM    7  O4  IDS C   2      35.952  74.567  17.499  1.00 35.98    -0.348 OA
BRANCH   7   8
HETATM    8  C1  SGN C   3      36.317  75.083  18.751  1.00 35.40     0.287 C 
HETATM    9  C2  SGN C   3      37.336  76.222  18.577  1.00 33.71     0.182 C 
HETATM   10  C3  SGN C   3      38.723  75.707  18.174  1.00 35.79     0.178 C 
HETATM   11  C4  SGN C   3      39.167  74.514  19.038  1.00 36.62     0.186 C 
HETATM   12  C5  SGN C   3      38.052  73.479  19.113  1.00 39.32     0.181 C 
HETATM   13  O5  SGN C   3      36.845  74.086  19.608  1.00 37.58    -0.349 OA
BRANCH   9  14
HETATM   14  N2  SGN C   3      36.867  77.139  17.562  1.00 29.28    -0.289 N 
ATOM     15  H2  SGN C   3      36.071  77.753  17.732  1.00  0.00     0.175 HD
BRANCH  14  16
HETATM   16  S1  SGN C   3      37.668  77.158  16.117  1.00 27.84     0.205 S 
HETATM   17  O1S SGN C   3      38.695  78.169  16.282  1.00 27.65    -0.578 OA
HETATM   18  O2S SGN C   3      36.639  77.539  15.104  1.00 27.72    -0.578 OA
HETATM   19  O3S SGN C   3      38.241  75.801  15.849  1.00 28.50    -0.578 OA
ENDBRANCH  14  16
ENDBRANCH   9  14
BRANCH  10  20
HETATM   20  O3  SGN C   3      39.672  76.766  18.277  1.00 34.89    -0.391 OA
ATOM     21  H3  SGN C   3      40.465  76.441  18.688  1.00  0.00     0.210 HD
ENDBRANCH  10  20
BRANCH  11  22
HETATM   22  O4  SGN C   3      40.322  73.900  18.439  1.00 37.13    -0.348 OA
BRANCH  22  23
HETATM   23  C1  UAP C   4      41.500  74.025  19.158  1.00 39.64     0.294 C 
HETATM   24  C2  UAP C   4      42.500  74.863  18.381  1.00 38.70     0.228 C 
HETATM   25  C3  UAP C   4      43.829  74.918  19.129  1.00 38.51     0.156 C 
HETATM   26  C4  UAP C   4      43.676  75.112  20.708  1.00 38.14     0.077 C 
HETATM   27  C5  UAP C   4      42.366  74.977  21.192  1.00 38.51     0.228 C 
HETATM   28  O5  UAP C   4      41.194  74.681  20.381  1.00 37.46    -0.343 OA
BRANCH  24  29
HETATM   29  O2  UAP C   4      42.760  74.254  17.076  1.00 40.54    -0.244 OA
BRANCH  29  30
HETATM   30  S   UAP C   4      42.648  75.112  15.729  1.00 40.49     0.252 S 
HETATM   31  O1S UAP C   4      42.446  74.158  14.629  1.00 40.89    -0.572 OA
HETATM   32  O2S UAP C   4      43.915  75.844  15.585  1.00 37.88    -0.572 OA
HETATM   33  O3S UAP C   4      41.501  76.020  15.888  1.00 37.47    -0.572 OA
ENDBRANCH  29  30
ENDBRANCH  24  29
BRANCH  25  34
HETATM   34  O3  UAP C   4      44.612  75.977  18.601  1.00 38.58    -0.393 OA
ATOM     35  H3  UAP C   4      44.926  76.516  19.317  1.00  0.00     0.210 HD
ENDBRANCH  25  34
BRANCH  27  36
HETATM   36  C6  UAP C   4      42.020  75.163  22.628  1.00 37.96     0.203 C 
HETATM   37  O6A UAP C   4      42.635  76.035  23.274  1.00 40.05    -0.646 OA
HETATM   38  O6B UAP C   4      41.133  74.435  23.122  1.00 36.71    -0.646 OA
ENDBRANCH  27  36
ENDBRANCH  22  23
ENDBRANCH  11  22
BRANCH  12  39
HETATM   39  C6  SGN C   3      38.356  72.308  20.006  1.00 42.65     0.227 C 
BRANCH  39  40
HETATM   40  O6  SGN C   3      38.586  72.867  21.317  1.00 51.09    -0.254 OA
BRANCH  40  41
HETATM   41  S2  SGN C   3      37.785  72.196  22.523  1.00 54.80     0.251 S 
HETATM   42  O4S SGN C   3      38.000  73.034  23.717  1.00 54.99    -0.572 OA
HETATM   43  O5S SGN C   3      38.350  70.824  22.700  1.00 53.99    -0.572 OA
HETATM   44  O6S SGN C   3      36.382  72.163  22.132  1.00 55.43    -0.572 OA
ENDBRANCH  40  41
ENDBRANCH  39  40
ENDBRANCH  12  39
ENDBRANCH   7   8
ENDBRANCH   4   7
BRANCH   3  45
HETATM   45  O3  IDS C   2      34.698  72.165  19.246  1.00 39.65    -0.390 OA
ATOM     46  H3  IDS C   2      34.165  71.837  19.961  1.00  0.00     0.210 HD
ENDBRANCH   3  45
BRANCH   5  47
HETATM   47  C6  IDS C   2      34.096  75.357  15.498  1.00 36.10     0.206 C 
HETATM   48  O6A IDS C   2      33.784  76.564  15.399  1.00 32.44    -0.646 OA
HETATM   49  O6B IDS C   2      34.781  74.738  14.649  1.00 33.44    -0.646 OA
ENDBRANCH   5  47
BRANCH   2  50
HETATM   50  O2  IDS C   2      32.381  73.219  20.388  1.00 43.59    -0.244 OA
BRANCH  50  51
HETATM   51  S   IDS C   2      31.869  71.747  20.730  1.00 44.11     0.252 S 
HETATM   52  O1S IDS C   2      30.487  71.890  21.304  1.00 44.48    -0.572 OA
HETATM   53  O2S IDS C   2      32.820  71.172  21.705  1.00 44.29    -0.572 OA
HETATM   54  O3S IDS C   2      31.861  71.003  19.483  1.00 44.74    -0.572 OA
ENDBRANCH  50  51
ENDBRANCH   2  50
BRANCH   1  55
HETATM   55  O4  SGN C   1      30.932  74.887  18.227  1.00 44.73    -0.348 OA
BRANCH  55  56
HETATM   56  C4  SGN C   1      30.225  76.129  18.020  1.00 48.25     0.186 C 
HETATM   57  C3  SGN C   1      29.765  76.226  16.560  1.00 48.43     0.178 C 
HETATM   58  C2  SGN C   1      28.884  77.460  16.368  1.00 48.58     0.181 C 
HETATM   59  C1  SGN C   1      27.732  77.488  17.372  1.00 50.40     0.283 C 
HETATM   60  O5  SGN C   1      28.240  77.396  18.708  1.00 50.82    -0.349 OA
HETATM   61  C5  SGN C   1      28.996  76.185  18.943  1.00 51.58     0.181 C 
BRANCH  57  62
HETATM   62  O3  SGN C   1      30.892  76.317  15.703  1.00 46.09    -0.391 OA
ATOM     63  H3  SGN C   1      31.497  75.613  15.904  1.00  0.00     0.210 HD
ENDBRANCH  57  62
BRANCH  58  64
HETATM   64  N2  SGN C   1      28.355  77.499  15.020  1.00 48.56    -0.289 N 
ATOM     65  H2  SGN C   1      27.537  76.962  14.733  1.00  0.00     0.175 HD
BRANCH  64  66
HETATM   66  S1  SGN C   1      29.185  78.487  13.985  1.00 47.67     0.205 S 
HETATM   67  O1S SGN C   1      30.135  79.265  14.810  1.00 47.59    -0.578 OA
HETATM   68  O2S SGN C   1      28.168  79.334  13.353  1.00 48.55    -0.578 OA
HETATM   69  O3S SGN C   1      29.871  77.605  13.016  1.00 47.08    -0.578 OA
ENDBRANCH  64  66
ENDBRANCH  58  64
BRANCH  59  70
HETATM   70  O1  SGN C   1      26.882  76.416  17.146  1.00 51.36    -0.369 OA
ATOM     71  H1  SGN C   1      27.378  75.673  16.822  1.00  0.00     0.212 HD
ENDBRANCH  59  70
BRANCH  61  72
HETATM   72  C6  SGN C   1      29.367  76.185  20.405  1.00 55.48     0.227 C 
BRANCH  72  73
HETATM   73  O6  SGN C   1      28.300  76.781  21.174  1.00 61.59    -0.254 OA
BRANCH  73  74
HETATM   74  S2  SGN C   1      27.744  75.884  22.368  1.00 65.98     0.251 S 
HETATM   75  O4S SGN C   1      26.219  76.006  22.352  1.00 65.09    -0.572 OA
HETATM   76  O5S SGN C   1      28.316  76.421  23.590  1.00 65.58    -0.572 OA
HETATM   77  O6S SGN C   1      28.214  74.420  22.101  1.00 65.84    -0.572 OA
ENDBRANCH  73  74
ENDBRANCH  72  73
ENDBRANCH  61  72
ENDBRANCH  55  56
ENDBRANCH   1  55
TORSDOF 27
ENDMDL
MODEL 51
REMARK VINA RESULT:      -5.5      7.156     13.000
REMARK  27 active torsions:
REMARK  status: ('A' for Active; 'I' for Inactive)
REMARK    1  A    between atoms: C1_1  and  O1_2 
REMARK    2  A    between atoms: S1_5  and  N2_7 
REMARK    3  A    between atoms: C2_6  and  N2_7 
REMARK    4  A    between atoms: S2_10  and  O6_22 
REMARK    5  A    between atoms: C3_11  and  O3_12 
REMARK    6  A    between atoms: C4_15  and  O4_16 
REMARK    7  A    between atoms: O4_16  and  C1_24 
REMARK    8  A    between atoms: C5_18  and  C6_21 
REMARK    9  A    between atoms: C6_21  and  O6_22 
REMARK   10  A    between atoms: C2_26  and  O2_27 
REMARK   11  A    between atoms: O2_27  and  S_40 
REMARK   12  A    between atoms: C3_29  and  O3_30 
REMARK   13  A    between atoms: C4_33  and  O4_34 
REMARK   14  A    between atoms: O4_34  and  C1_41 
REMARK   15  A    between atoms: C5_35  and  C6_37 
REMARK   16  A    between atoms: S1_43  and  N2_45 
REMARK   17  A    between atoms: C2_44  and  N2_45 
REMARK   18  A    between atoms: S2_48  and  O6_60 
REMARK   19  A    between atoms: C3_49  and  O3_50 
REMARK   20  A    between atoms: C4_53  and  O4_54 
REMARK   21  A    between atoms: O4_54  and  C1_62 
REMARK   22  A    between atoms: C5_56  and  C6_59 
REMARK   23  A    between atoms: C6_59  and  O6_60 
REMARK   24  A    between atoms: C2_64  and  O2_65 
REMARK   25  A    between atoms: O2_65  and  S_77 
REMARK   26  A    between atoms: C3_67  and  O3_68 
REMARK   27  A    between atoms: C5_72  and  C6_74 
ROOT
HETATM    1  C1  IDS C   2      32.786  72.763  17.465  1.00 40.81     0.294 C 
HETATM    2  C2  IDS C   2      32.391  73.070  18.912  1.00 40.20     0.231 C 
HETATM    3  C3  IDS C   2      33.230  72.257  19.894  1.00 39.01     0.185 C 
HETATM    4  C4  IDS C   2      33.039  70.744  19.663  1.00 37.65     0.195 C 
HETATM    5  C5  IDS C   2      32.511  70.497  18.244  1.00 35.99     0.257 C 
HETATM    6  O5  IDS C   2      33.180  71.382  17.314  1.00 39.00    -0.340 OA
ENDROOT
BRANCH   4   7
HETATM    7  O4  IDS C   2      34.301  70.056  19.851  1.00 35.98    -0.348 OA
BRANCH   7   8
HETATM    8  C1  SGN C   3      35.423  70.871  20.054  1.00 35.40     0.287 C 
HETATM    9  C2  SGN C   3      36.560  70.454  19.104  1.00 33.71     0.182 C 
HETATM   10  C3  SGN C   3      37.210  69.129  19.520  1.00 35.79     0.178 C 
HETATM   11  C4  SGN C   3      37.525  69.091  21.025  1.00 36.62     0.186 C 
HETATM   12  C5  SGN C   3      36.305  69.531  21.826  1.00 39.32     0.181 C 
HETATM   13  O5  SGN C   3      35.876  70.835  21.396  1.00 37.58    -0.349 OA
BRANCH   9  14
HETATM   14  N2  SGN C   3      36.041  70.316  17.761  1.00 29.28    -0.289 N 
ATOM     15  H2  SGN C   3      35.133  69.884  17.588  1.00  0.00     0.175 HD
BRANCH  14  16
HETATM   16  S1  SGN C   3      36.969  70.883  16.518  1.00 27.84     0.205 S 
HETATM   17  O1S SGN C   3      37.456  69.689  15.853  1.00 27.65    -0.578 OA
HETATM   18  O2S SGN C   3      38.061  71.665  17.170  1.00 27.72    -0.578 OA
HETATM   19  O3S SGN C   3      36.130  71.735  15.618  1.00 28.50    -0.578 OA
ENDBRANCH  14  16
ENDBRANCH   9  14
BRANCH  10  20
HETATM   20  O3  SGN C   3      38.403  68.928  18.766  1.00 34.89    -0.391 OA
ATOM     21  H3  SGN C   3      39.154  68.960  19.347  1.00  0.00     0.210 HD
ENDBRANCH  10  20
BRANCH  11  22
HETATM   22  O4  SGN C   3      37.859  67.744  21.404  1.00 37.13    -0.348 OA
BRANCH  22  23
HETATM   23  C1  UAP C   4      39.058  67.599  22.085  1.00 39.64     0.294 C 
HETATM   24  C2  UAP C   4      39.108  66.246  22.771  1.00 38.70     0.228 C 
HETATM   25  C3  UAP C   4      40.385  66.127  23.599  1.00 38.51     0.156 C 
HETATM   26  C4  UAP C   4      41.685  66.706  22.872  1.00 38.14     0.077 C 
HETATM   27  C5  UAP C   4      41.427  67.429  21.698  1.00 38.51     0.228 C 
HETATM   28  O5  UAP C   4      40.109  67.676  21.131  1.00 37.46    -0.343 OA
BRANCH  24  29
HETATM   29  O2  UAP C   4      37.978  66.106  23.691  1.00 40.54    -0.244 OA
BRANCH  29  30
HETATM   30  S   UAP C   4      36.966  64.871  23.572  1.00 40.49     0.252 S 
HETATM   31  O1S UAP C   4      36.100  64.912  24.760  1.00 40.89    -0.572 OA
HETATM   32  O2S UAP C   4      37.786  63.652  23.541  1.00 37.88    -0.572 OA
HETATM   33  O3S UAP C   4      36.203  65.056  22.328  1.00 37.47    -0.572 OA
ENDBRANCH  29  30
ENDBRANCH  24  29
BRANCH  25  34
HETATM   34  O3  UAP C   4      40.598  64.762  23.924  1.00 38.58    -0.393 OA
ATOM     35  H3  UAP C   4      40.662  64.260  23.121  1.00  0.00     0.210 HD
ENDBRANCH  25  34
BRANCH  27  36
HETATM   36  C6  UAP C   4      42.514  68.010  20.861  1.00 37.96     0.203 C 
HETATM   37  O6A UAP C   4      42.195  68.789  19.941  1.00 40.05    -0.646 OA
HETATM   38  O6B UAP C   4      43.694  67.690  21.118  1.00 36.71    -0.646 OA
ENDBRANCH  27  36
ENDBRANCH  22  23
ENDBRANCH  11  22
BRANCH  12  39
HETATM   39  C6  SGN C   3      36.536  69.608  23.309  1.00 42.65     0.227 C 
BRANCH  39  40
HETATM   40  O6  SGN C   3      35.834  68.480  23.873  1.00 51.09    -0.254 OA
BRANCH  40  41
HETATM   41  S2  SGN C   3      35.367  68.624  25.393  1.00 54.80     0.251 S 
HETATM   42  O4S SGN C   3      34.783  69.968  25.550  1.00 54.99    -0.572 OA
HETATM   43  O5S SGN C   3      36.590  68.449  26.233  1.00 53.99    -0.572 OA
HETATM   44  O6S SGN C   3      34.384  67.576  25.634  1.00 55.43    -0.572 OA
ENDBRANCH  40  41
ENDBRANCH  39  40
ENDBRANCH  12  39
ENDBRANCH   7   8
ENDBRANCH   4   7
BRANCH   3  45
HETATM   45  O3  IDS C   2      32.859  72.592  21.224  1.00 39.65    -0.390 OA
ATOM     46  H3  IDS C   2      32.204  71.979  21.535  1.00  0.00     0.210 HD
ENDBRANCH   3  45
BRANCH   5  47
HETATM   47  C6  IDS C   2      32.680  69.071  17.735  1.00 36.10     0.206 C 
HETATM   48  O6A IDS C   2      32.223  68.146  18.441  1.00 32.44    -0.646 OA
HETATM   49  O6B IDS C   2      33.251  68.896  16.632  1.00 33.44    -0.646 OA
ENDBRANCH   5  47
BRANCH   2  50
HETATM   50  O2  IDS C   2      32.607  74.484  19.190  1.00 43.59    -0.244 OA
BRANCH  50  51
HETATM   51  S   IDS C   2      31.407  75.367  19.764  1.00 44.11     0.252 S 
HETATM   52  O1S IDS C   2      30.979  76.290  18.658  1.00 44.48    -0.572 OA
HETATM   53  O2S IDS C   2      31.931  76.104  20.933  1.00 44.29    -0.572 OA
HETATM   54  O3S IDS C   2      30.348  74.447  20.139  1.00 44.74    -0.572 OA
ENDBRANCH  50  51
ENDBRANCH   2  50
BRANCH   1  55
HETATM   55  O4  SGN C   1      31.707  73.010  16.628  1.00 44.73    -0.348 OA
BRANCH  55  56
HETATM   56  C4  SGN C   1      31.959  73.057  15.207  1.00 48.25     0.186 C 
HETATM   57  C3  SGN C   1      31.094  72.012  14.492  1.00 48.43     0.178 C 
HETATM   58  C2  SGN C   1      31.238  72.160  12.977  1.00 48.58     0.181 C 
HETATM   59  C1  SGN C   1      30.960  73.592  12.524  1.00 50.40     0.283 C 
HETATM   60  O5  SGN C   1      31.805  74.506  13.233  1.00 50.82    -0.349 OA
HETATM   61  C5  SGN C   1      31.616  74.456  14.666  1.00 51.58     0.181 C 
BRANCH  57  62
HETATM   62  O3  SGN C   1      31.496  70.707  14.875  1.00 46.09    -0.391 OA
ATOM     63  H3  SGN C   1      30.757  70.251  15.261  1.00  0.00     0.210 HD
ENDBRANCH  57  62
BRANCH  58  64
HETATM   64  N2  SGN C   1      30.341  71.251  12.293  1.00 48.56    -0.289 N 
ATOM     65  H2  SGN C   1      29.351  71.173  12.527  1.00  0.00     0.175 HD
BRANCH  64  66
HETATM   66  S1  SGN C   1      31.053  70.349  11.103  1.00 47.67     0.205 S 
HETATM   67  O1S SGN C   1      30.799  71.054   9.827  1.00 47.59    -0.578 OA
HETATM   68  O2S SGN C   1      30.396  69.040  11.160  1.00 48.55    -0.578 OA
HETATM   69  O3S SGN C   1      32.493  70.276  11.431  1.00 47.08    -0.578 OA
ENDBRANCH  64  66
ENDBRANCH  58  64
BRANCH  59  70
HETATM   70  O1  SGN C   1      29.637  73.921  12.781  1.00 51.36    -0.369 OA
ATOM     71  H1  SGN C   1      29.130  73.871  11.980  1.00  0.00     0.212 HD
ENDBRANCH  59  70
BRANCH  61  72
HETATM   72  C6  SGN C   1      32.487  75.537  15.255  1.00 55.48     0.227 C 
BRANCH  72  73
HETATM   73  O6  SGN C   1      33.736  75.598  14.532  1.00 61.59    -0.254 OA
BRANCH  73  74
HETATM   74  S2  SGN C   1      34.167  77.054  14.048  1.00 65.98     0.251 S 
HETATM   75  O4S SGN C   1      34.751  76.907  12.641  1.00 65.09    -0.572 OA
HETATM   76  O5S SGN C   1      35.157  77.528  14.997  1.00 65.58    -0.572 OA
HETATM   77  O6S SGN C   1      32.882  77.940  14.056  1.00 65.84    -0.572 OA
ENDBRANCH  73  74
ENDBRANCH  72  73
ENDBRANCH  61  72
ENDBRANCH  55  56
ENDBRANCH   1  55
TORSDOF 27
ENDMDL
MODEL 52
REMARK VINA RESULT:      -5.5      5.324     12.211
REMARK  27 active torsions:
REMARK  status: ('A' for Active; 'I' for Inactive)
REMARK    1  A    between atoms: C1_1  and  O1_2 
REMARK    2  A    between atoms: S1_5  and  N2_7 
REMARK    3  A    between atoms: C2_6  and  N2_7 
REMARK    4  A    between atoms: S2_10  and  O6_22 
REMARK    5  A    between atoms: C3_11  and  O3_12 
REMARK    6  A    between atoms: C4_15  and  O4_16 
REMARK    7  A    between atoms: O4_16  and  C1_24 
REMARK    8  A    between atoms: C5_18  and  C6_21 
REMARK    9  A    between atoms: C6_21  and  O6_22 
REMARK   10  A    between atoms: C2_26  and  O2_27 
REMARK   11  A    between atoms: O2_27  and  S_40 
REMARK   12  A    between atoms: C3_29  and  O3_30 
REMARK   13  A    between atoms: C4_33  and  O4_34 
REMARK   14  A    between atoms: O4_34  and  C1_41 
REMARK   15  A    between atoms: C5_35  and  C6_37 
REMARK   16  A    between atoms: S1_43  and  N2_45 
REMARK   17  A    between atoms: C2_44  and  N2_45 
REMARK   18  A    between atoms: S2_48  and  O6_60 
REMARK   19  A    between atoms: C3_49  and  O3_50 
REMARK   20  A    between atoms: C4_53  and  O4_54 
REMARK   21  A    between atoms: O4_54  and  C1_62 
REMARK   22  A    between atoms: C5_56  and  C6_59 
REMARK   23  A    between atoms: C6_59  and  O6_60 
REMARK   24  A    between atoms: C2_64  and  O2_65 
REMARK   25  A    between atoms: O2_65  and  S_77 
REMARK   26  A    between atoms: C3_67  and  O3_68 
REMARK   27  A    between atoms: C5_72  and  C6_74 
ROOT
HETATM    1  C1  IDS C   2      27.196  83.823  12.262  1.00 40.81     0.294 C 
HETATM    2  C2  IDS C   2      26.953  85.041  11.367  1.00 40.20     0.231 C 
HETATM    3  C3  IDS C   2      25.945  84.722  10.267  1.00 39.01     0.185 C 
HETATM    4  C4  IDS C   2      26.450  83.572   9.372  1.00 37.65     0.195 C 
HETATM    5  C5  IDS C   2      27.512  82.757  10.120  1.00 35.99     0.257 C 
HETATM    6  O5  IDS C   2      27.117  82.595  11.504  1.00 39.00    -0.340 OA
ENDROOT
BRANCH   4   7
HETATM    7  O4  IDS C   2      25.340  82.717   8.999  1.00 35.98    -0.348 OA
BRANCH   7   8
HETATM    8  C1  SGN C   3      24.194  82.808   9.801  1.00 35.40     0.287 C 
HETATM    9  C2  SGN C   3      23.533  81.426   9.939  1.00 33.71     0.182 C 
HETATM   10  C3  SGN C   3      22.826  80.987   8.650  1.00 35.79     0.178 C 
HETATM   11  C4  SGN C   3      21.955  82.111   8.062  1.00 36.62     0.186 C 
HETATM   12  C5  SGN C   3      22.750  83.409   7.994  1.00 39.32     0.181 C 
HETATM   13  O5  SGN C   3      23.260  83.745   9.297  1.00 37.58    -0.349 OA
BRANCH   9  14
HETATM   14  N2  SGN C   3      24.536  80.441  10.277  1.00 29.28    -0.289 N 
ATOM     15  H2  SGN C   3      25.409  80.375   9.752  1.00  0.00     0.175 HD
BRANCH  14  16
HETATM   16  S1  SGN C   3      24.220  79.427  11.542  1.00 27.84     0.205 S 
HETATM   17  O1S SGN C   3      22.845  79.715  11.904  1.00 27.65    -0.578 OA
HETATM   18  O2S SGN C   3      25.191  79.815  12.607  1.00 27.72    -0.578 OA
HETATM   19  O3S SGN C   3      24.408  78.009  11.102  1.00 28.50    -0.578 OA
ENDBRANCH  14  16
ENDBRANCH   9  14
BRANCH  10  20
HETATM   20  O3  SGN C   3      22.028  79.836   8.914  1.00 34.89    -0.391 OA
ATOM     21  H3  SGN C   3      22.205  79.522   9.792  1.00  0.00     0.210 HD
ENDBRANCH  10  20
BRANCH  11  22
HETATM   22  O4  SGN C   3      21.555  81.749   6.728  1.00 37.13    -0.348 OA
BRANCH  22  23
HETATM   23  C1  UAP C   4      20.227  81.378   6.587  1.00 39.64     0.294 C 
HETATM   24  C2  UAP C   4      20.131  79.898   6.262  1.00 38.70     0.228 C 
HETATM   25  C3  UAP C   4      18.676  79.511   6.011  1.00 38.51     0.156 C 
HETATM   26  C4  UAP C   4      17.643  80.177   7.034  1.00 38.14     0.077 C 
HETATM   27  C5  UAP C   4      18.190  81.176   7.852  1.00 38.51     0.228 C 
HETATM   28  O5  UAP C   4      19.574  81.626   7.825  1.00 37.46    -0.343 OA
BRANCH  24  29
HETATM   29  O2  UAP C   4      20.877  79.602   5.038  1.00 40.54    -0.244 OA
BRANCH  29  30
HETATM   30  S   UAP C   4      22.187  78.682   5.073  1.00 40.49     0.252 S 
HETATM   31  O1S UAP C   4      22.267  78.101   6.421  1.00 40.89    -0.572 OA
HETATM   32  O2S UAP C   4      23.331  79.562   4.793  1.00 37.88    -0.572 OA
HETATM   33  O3S UAP C   4      22.019  77.650   4.038  1.00 37.47    -0.572 OA
ENDBRANCH  29  30
ENDBRANCH  24  29
BRANCH  25  34
HETATM   34  O3  UAP C   4      18.556  78.099   6.076  1.00 38.58    -0.393 OA
ATOM     35  H3  UAP C   4      18.620  77.825   6.984  1.00  0.00     0.210 HD
ENDBRANCH  25  34
BRANCH  27  36
HETATM   36  C6  UAP C   4      17.393  81.882   8.894  1.00 37.96     0.203 C 
HETATM   37  O6A UAP C   4      17.153  83.094   8.730  1.00 40.05    -0.646 OA
HETATM   38  O6B UAP C   4      17.004  81.228   9.885  1.00 36.71    -0.646 OA
ENDBRANCH  27  36
ENDBRANCH  22  23
ENDBRANCH  11  22
BRANCH  12  39
HETATM   39  C6  SGN C   3      21.960  84.592   7.509  1.00 42.65     0.227 C 
BRANCH  39  40
HETATM   40  O6  SGN C   3      22.371  85.702   8.337  1.00 51.09    -0.254 OA
BRANCH  40  41
HETATM   41  S2  SGN C   3      21.528  87.048   8.186  1.00 54.80     0.251 S 
HETATM   42  O4S SGN C   3      22.433  88.077   7.641  1.00 54.99    -0.572 OA
HETATM   43  O5S SGN C   3      21.043  87.404   9.553  1.00 53.99    -0.572 OA
HETATM   44  O6S SGN C   3      20.429  86.758   7.274  1.00 55.43    -0.572 OA
ENDBRANCH  40  41
ENDBRANCH  39  40
ENDBRANCH  12  39
ENDBRANCH   7   8
ENDBRANCH   4   7
BRANCH   3  45
HETATM   45  O3  IDS C   2      25.720  85.883   9.479  1.00 39.65    -0.390 OA
ATOM     46  H3  IDS C   2      25.909  86.657   9.995  1.00  0.00     0.210 HD
ENDBRANCH   3  45
BRANCH   5  47
HETATM   47  C6  IDS C   2      27.782  81.372   9.547  1.00 36.10     0.206 C 
HETATM   48  O6A IDS C   2      27.542  80.385  10.277  1.00 32.44    -0.646 OA
HETATM   49  O6B IDS C   2      28.215  81.288   8.373  1.00 33.44    -0.646 OA
ENDBRANCH   5  47
BRANCH   2  50
HETATM   50  O2  IDS C   2      26.424  86.139  12.166  1.00 43.59    -0.244 OA
BRANCH  50  51
HETATM   51  S   IDS C   2      27.223  87.518  12.240  1.00 44.11     0.252 S 
HETATM   52  O1S IDS C   2      26.610  88.317  13.355  1.00 44.48    -0.572 OA
HETATM   53  O2S IDS C   2      27.067  88.181  10.928  1.00 44.29    -0.572 OA
HETATM   54  O3S IDS C   2      28.610  87.187  12.513  1.00 44.74    -0.572 OA
ENDBRANCH  50  51
ENDBRANCH   2  50
BRANCH   1  55
HETATM   55  O4  SGN C   1      28.458  83.910  12.831  1.00 44.73    -0.348 OA
BRANCH  55  56
HETATM   56  C4  SGN C   1      28.694  83.180  14.055  1.00 48.25     0.186 C 
HETATM   57  C3  SGN C   1      29.662  82.021  13.789  1.00 48.43     0.178 C 
HETATM   58  C2  SGN C   1      30.038  81.339  15.103  1.00 48.58     0.181 C 
HETATM   59  C1  SGN C   1      30.560  82.344  16.128  1.00 50.40     0.283 C 
HETATM   60  O5  SGN C   1      29.602  83.392  16.324  1.00 50.82    -0.349 OA
HETATM   61  C5  SGN C   1      29.304  84.119  15.109  1.00 51.58     0.181 C 
BRANCH  57  62
HETATM   62  O3  SGN C   1      29.055  81.072  12.925  1.00 46.09    -0.391 OA
ATOM     63  H3  SGN C   1      29.449  81.136  12.063  1.00  0.00     0.210 HD
ENDBRANCH  57  62
BRANCH  58  64
HETATM   64  N2  SGN C   1      31.036  80.314  14.875  1.00 48.56    -0.289 N 
ATOM     65  H2  SGN C   1      31.955  80.519  14.483  1.00  0.00     0.175 HD
BRANCH  64  66
HETATM   66  S1  SGN C   1      30.564  78.787  15.300  1.00 47.67     0.205 S 
HETATM   67  O1S SGN C   1      29.536  78.372  14.321  1.00 47.59    -0.578 OA
HETATM   68  O2S SGN C   1      30.026  78.909  16.659  1.00 48.55    -0.578 OA
HETATM   69  O3S SGN C   1      31.774  77.938  15.242  1.00 47.08    -0.578 OA
ENDBRANCH  64  66
ENDBRANCH  58  64
BRANCH  59  70
HETATM   70  O1  SGN C   1      31.745  82.905  15.677  1.00 51.36    -0.369 OA
ATOM     71  H1  SGN C   1      32.479  82.360  15.934  1.00  0.00     0.212 HD
ENDBRANCH  59  70
BRANCH  61  72
HETATM   72  C6  SGN C   1      28.374  85.241  15.496  1.00 55.48     0.227 C 
BRANCH  72  73
HETATM   73  O6  SGN C   1      28.315  85.345  16.935  1.00 61.59    -0.254 OA
BRANCH  73  74
HETATM   74  S2  SGN C   1      28.250  86.833  17.503  1.00 65.98     0.251 S 
HETATM   75  O4S SGN C   1      28.804  86.796  18.929  1.00 65.09    -0.572 OA
HETATM   76  O5S SGN C   1      26.852  87.225  17.477  1.00 65.58    -0.572 OA
HETATM   77  O6S SGN C   1      29.121  87.723  16.563  1.00 65.84    -0.572 OA
ENDBRANCH  73  74
ENDBRANCH  72  73
ENDBRANCH  61  72
ENDBRANCH  55  56
ENDBRANCH   1  55
TORSDOF 27
ENDMDL
MODEL 53
REMARK VINA RESULT:      -5.5      5.210     12.812
REMARK  27 active torsions:
REMARK  status: ('A' for Active; 'I' for Inactive)
REMARK    1  A    between atoms: C1_1  and  O1_2 
REMARK    2  A    between atoms: S1_5  and  N2_7 
REMARK    3  A    between atoms: C2_6  and  N2_7 
REMARK    4  A    between atoms: S2_10  and  O6_22 
REMARK    5  A    between atoms: C3_11  and  O3_12 
REMARK    6  A    between atoms: C4_15  and  O4_16 
REMARK    7  A    between atoms: O4_16  and  C1_24 
REMARK    8  A    between atoms: C5_18  and  C6_21 
REMARK    9  A    between atoms: C6_21  and  O6_22 
REMARK   10  A    between atoms: C2_26  and  O2_27 
REMARK   11  A    between atoms: O2_27  and  S_40 
REMARK   12  A    between atoms: C3_29  and  O3_30 
REMARK   13  A    between atoms: C4_33  and  O4_34 
REMARK   14  A    between atoms: O4_34  and  C1_41 
REMARK   15  A    between atoms: C5_35  and  C6_37 
REMARK   16  A    between atoms: S1_43  and  N2_45 
REMARK   17  A    between atoms: C2_44  and  N2_45 
REMARK   18  A    between atoms: S2_48  and  O6_60 
REMARK   19  A    between atoms: C3_49  and  O3_50 
REMARK   20  A    between atoms: C4_53  and  O4_54 
REMARK   21  A    between atoms: O4_54  and  C1_62 
REMARK   22  A    between atoms: C5_56  and  C6_59 
REMARK   23  A    between atoms: C6_59  and  O6_60 
REMARK   24  A    between atoms: C2_64  and  O2_65 
REMARK   25  A    between atoms: O2_65  and  S_77 
REMARK   26  A    between atoms: C3_67  and  O3_68 
REMARK   27  A    between atoms: C5_72  and  C6_74 
ROOT
HETATM    1  C1  IDS C   2      27.224  81.948  12.463  1.00 40.81     0.294 C 
HETATM    2  C2  IDS C   2      27.532  82.718  11.177  1.00 40.20     0.231 C 
HETATM    3  C3  IDS C   2      26.248  83.114  10.453  1.00 39.01     0.185 C 
HETATM    4  C4  IDS C   2      25.423  81.869  10.072  1.00 37.65     0.195 C 
HETATM    5  C5  IDS C   2      25.833  80.682  10.952  1.00 35.99     0.257 C 
HETATM    6  O5  IDS C   2      26.041  81.133  12.312  1.00 39.00    -0.340 OA
ENDROOT
BRANCH   4   7
HETATM    7  O4  IDS C   2      24.010  82.146  10.240  1.00 35.98    -0.348 OA
BRANCH   7   8
HETATM    8  C1  SGN C   3      23.691  83.330  10.920  1.00 35.40     0.287 C 
HETATM    9  C2  SGN C   3      22.595  83.060  11.967  1.00 33.71     0.182 C 
HETATM   10  C3  SGN C   3      21.221  82.833  11.327  1.00 35.79     0.178 C 
HETATM   11  C4  SGN C   3      20.903  83.892  10.258  1.00 36.62     0.186 C 
HETATM   12  C5  SGN C   3      22.081  84.043   9.304  1.00 39.32     0.181 C 
HETATM   13  O5  SGN C   3      23.276  84.359  10.040  1.00 37.58    -0.349 OA
BRANCH   9  14
HETATM   14  N2  SGN C   3      22.946  81.890  12.742  1.00 29.28    -0.289 N 
ATOM     15  H2  SGN C   3      23.121  80.992  12.292  1.00  0.00     0.175 HD
BRANCH  14  16
HETATM   16  S1  SGN C   3      23.053  82.061  14.382  1.00 27.84     0.205 S 
HETATM   17  O1S SGN C   3      21.906  82.874  14.738  1.00 27.65    -0.578 OA
HETATM   18  O2S SGN C   3      24.351  82.758  14.619  1.00 27.72    -0.578 OA
HETATM   19  O3S SGN C   3      23.016  80.710  15.026  1.00 28.50    -0.578 OA
ENDBRANCH  14  16
ENDBRANCH   9  14
BRANCH  10  20
HETATM   20  O3  SGN C   3      20.217  82.843  12.340  1.00 34.89    -0.391 OA
ATOM     21  H3  SGN C   3      19.462  83.331  12.032  1.00  0.00     0.210 HD
ENDBRANCH  10  20
BRANCH  11  22
HETATM   22  O4  SGN C   3      19.753  83.471   9.502  1.00 37.13    -0.348 OA
BRANCH  22  23
HETATM   23  C1  UAP C   4      18.618  84.249   9.667  1.00 39.64     0.294 C 
HETATM   24  C2  UAP C   4      17.372  83.396   9.502  1.00 38.70     0.228 C 
HETATM   25  C3  UAP C   4      16.124  84.271   9.587  1.00 38.51     0.156 C 
HETATM   26  C4  UAP C   4      16.189  85.382  10.734  1.00 38.14     0.077 C 
HETATM   27  C5  UAP C   4      17.448  85.535  11.332  1.00 38.51     0.228 C 
HETATM   28  O5  UAP C   4      18.645  84.782  10.985  1.00 37.46    -0.343 OA
BRANCH  24  29
HETATM   29  O2  UAP C   4      17.369  82.760   8.184  1.00 40.54    -0.244 OA
BRANCH  29  30
HETATM   30  S   UAP C   4      17.591  81.182   8.030  1.00 40.49     0.252 S 
HETATM   31  O1S UAP C   4      16.715  80.731   6.938  1.00 40.89    -0.572 OA
HETATM   32  O2S UAP C   4      17.214  80.573   9.313  1.00 37.88    -0.572 OA
HETATM   33  O3S UAP C   4      19.013  80.974   7.715  1.00 37.47    -0.572 OA
ENDBRANCH  29  30
ENDBRANCH  24  29
BRANCH  25  34
HETATM   34  O3  UAP C   4      14.993  83.441   9.802  1.00 38.58    -0.393 OA
ATOM     35  H3  UAP C   4      15.005  83.129  10.699  1.00  0.00     0.210 HD
ENDBRANCH  25  34
BRANCH  27  36
HETATM   36  C6  UAP C   4      17.694  86.493  12.446  1.00 37.96     0.203 C 
HETATM   37  O6A UAP C   4      18.768  86.403  13.074  1.00 40.05    -0.646 OA
HETATM   38  O6B UAP C   4      16.813  87.340  12.703  1.00 36.71    -0.646 OA
ENDBRANCH  27  36
ENDBRANCH  22  23
ENDBRANCH  11  22
BRANCH  12  39
HETATM   39  C6  SGN C   3      21.903  85.118   8.268  1.00 42.65     0.227 C 
BRANCH  39  40
HETATM   40  O6  SGN C   3      22.348  86.341   8.894  1.00 51.09    -0.254 OA
BRANCH  40  41
HETATM   41  S2  SGN C   3      21.229  87.446   9.167  1.00 54.80     0.251 S 
HETATM   42  O4S SGN C   3      21.815  88.758   8.838  1.00 54.99    -0.572 OA
HETATM   43  O5S SGN C   3      20.873  87.344  10.613  1.00 53.99    -0.572 OA
HETATM   44  O6S SGN C   3      20.100  87.126   8.302  1.00 55.43    -0.572 OA
ENDBRANCH  40  41
ENDBRANCH  39  40
ENDBRANCH  12  39
ENDBRANCH   7   8
ENDBRANCH   4   7
BRANCH   3  45
HETATM   45  O3  IDS C   2      26.572  83.854   9.284  1.00 39.65    -0.390 OA
ATOM     46  H3  IDS C   2      26.922  83.268   8.624  1.00  0.00     0.210 HD
ENDBRANCH   3  45
BRANCH   5  47
HETATM   47  C6  IDS C   2      24.835  79.533  10.989  1.00 36.10     0.206 C 
HETATM   48  O6A IDS C   2      24.791  78.771   9.998  1.00 32.44    -0.646 OA
HETATM   49  O6B IDS C   2      24.120  79.397  12.011  1.00 33.44    -0.646 OA
ENDBRANCH   5  47
BRANCH   2  50
HETATM   50  O2  IDS C   2      28.269  83.934  11.497  1.00 43.59    -0.244 OA
BRANCH  50  51
HETATM   51  S   IDS C   2      29.704  84.183  10.843  1.00 44.11     0.252 S 
HETATM   52  O1S IDS C   2      29.473  84.473   9.387  1.00 44.48    -0.572 OA
HETATM   53  O2S IDS C   2      30.492  82.950  11.047  1.00 44.29    -0.572 OA
HETATM   54  O3S IDS C   2      30.290  85.317  11.534  1.00 44.74    -0.572 OA
ENDBRANCH  50  51
ENDBRANCH   2  50
BRANCH   1  55
HETATM   55  O4  SGN C   1      28.294  81.122  12.776  1.00 44.73    -0.348 OA
BRANCH  55  56
HETATM   56  C4  SGN C   1      28.496  80.785  14.166  1.00 48.25     0.186 C 
HETATM   57  C3  SGN C   1      28.412  79.265  14.349  1.00 48.43     0.178 C 
HETATM   58  C2  SGN C   1      28.778  78.888  15.783  1.00 48.58     0.181 C 
HETATM   59  C1  SGN C   1      30.127  79.475  16.192  1.00 50.40     0.283 C 
HETATM   60  O5  SGN C   1      30.127  80.895  15.995  1.00 50.82    -0.349 OA
HETATM   61  C5  SGN C   1      29.881  81.275  14.621  1.00 51.58     0.181 C 
BRANCH  57  62
HETATM   62  O3  SGN C   1      27.096  78.815  14.067  1.00 46.09    -0.391 OA
ATOM     63  H3  SGN C   1      27.088  77.865  14.037  1.00  0.00     0.210 HD
ENDBRANCH  57  62
BRANCH  58  64
HETATM   64  N2  SGN C   1      28.808  77.447  15.936  1.00 48.56    -0.289 N 
ATOM     65  H2  SGN C   1      29.567  76.871  15.571  1.00  0.00     0.175 HD
BRANCH  64  66
HETATM   66  S1  SGN C   1      27.514  76.814  16.749  1.00 47.67     0.205 S 
HETATM   67  O1S SGN C   1      26.920  75.786  15.867  1.00 47.59    -0.578 OA
HETATM   68  O2S SGN C   1      26.609  77.944  16.981  1.00 48.55    -0.578 OA
HETATM   69  O3S SGN C   1      28.043  76.242  18.006  1.00 47.08    -0.578 OA
ENDBRANCH  64  66
ENDBRANCH  58  64
BRANCH  59  70
HETATM   70  O1  SGN C   1      31.137  78.921  15.419  1.00 51.36    -0.369 OA
ATOM     71  H1  SGN C   1      31.685  78.362  15.956  1.00  0.00     0.212 HD
ENDBRANCH  59  70
BRANCH  61  72
HETATM   72  C6  SGN C   1      30.016  82.776  14.558  1.00 55.48     0.227 C 
BRANCH  72  73
HETATM   73  O6  SGN C   1      29.448  83.363  15.749  1.00 61.59    -0.254 OA
BRANCH  73  74
HETATM   74  S2  SGN C   1      28.567  84.668  15.505  1.00 65.98     0.251 S 
HETATM   75  O4S SGN C   1      28.184  85.218  16.881  1.00 65.09    -0.572 OA
HETATM   76  O5S SGN C   1      27.403  84.247  14.748  1.00 65.58    -0.572 OA
HETATM   77  O6S SGN C   1      29.450  85.675  14.702  1.00 65.84    -0.572 OA
ENDBRANCH  73  74
ENDBRANCH  72  73
ENDBRANCH  61  72
ENDBRANCH  55  56
ENDBRANCH   1  55
TORSDOF 27
ENDMDL
MODEL 54
REMARK VINA RESULT:      -5.4      4.516     13.166
REMARK  27 active torsions:
REMARK  status: ('A' for Active; 'I' for Inactive)
REMARK    1  A    between atoms: C1_1  and  O1_2 
REMARK    2  A    between atoms: S1_5  and  N2_7 
REMARK    3  A    between atoms: C2_6  and  N2_7 
REMARK    4  A    between atoms: S2_10  and  O6_22 
REMARK    5  A    between atoms: C3_11  and  O3_12 
REMARK    6  A    between atoms: C4_15  and  O4_16 
REMARK    7  A    between atoms: O4_16  and  C1_24 
REMARK    8  A    between atoms: C5_18  and  C6_21 
REMARK    9  A    between atoms: C6_21  and  O6_22 
REMARK   10  A    between atoms: C2_26  and  O2_27 
REMARK   11  A    between atoms: O2_27  and  S_40 
REMARK   12  A    between atoms: C3_29  and  O3_30 
REMARK   13  A    between atoms: C4_33  and  O4_34 
REMARK   14  A    between atoms: O4_34  and  C1_41 
REMARK   15  A    between atoms: C5_35  and  C6_37 
REMARK   16  A    between atoms: S1_43  and  N2_45 
REMARK   17  A    between atoms: C2_44  and  N2_45 
REMARK   18  A    between atoms: S2_48  and  O6_60 
REMARK   19  A    between atoms: C3_49  and  O3_50 
REMARK   20  A    between atoms: C4_53  and  O4_54 
REMARK   21  A    between atoms: O4_54  and  C1_62 
REMARK   22  A    between atoms: C5_56  and  C6_59 
REMARK   23  A    between atoms: C6_59  and  O6_60 
REMARK   24  A    between atoms: C2_64  and  O2_65 
REMARK   25  A    between atoms: O2_65  and  S_77 
REMARK   26  A    between atoms: C3_67  and  O3_68 
REMARK   27  A    between atoms: C5_72  and  C6_74 
ROOT
HETATM    1  C1  IDS C   2      33.443  70.920  18.128  1.00 40.81     0.294 C 
HETATM    2  C2  IDS C   2      34.051  72.181  18.745  1.00 40.20     0.231 C 
HETATM    3  C3  IDS C   2      33.676  73.422  17.939  1.00 39.01     0.185 C 
HETATM    4  C4  IDS C   2      34.186  73.313  16.488  1.00 37.65     0.195 C 
HETATM    5  C5  IDS C   2      34.439  71.842  16.134  1.00 35.99     0.257 C 
HETATM    6  O5  IDS C   2      33.385  71.019  16.688  1.00 39.00    -0.340 OA
ENDROOT
BRANCH   4   7
HETATM    7  O4  IDS C   2      33.209  73.880  15.580  1.00 35.98    -0.348 OA
BRANCH   7   8
HETATM    8  C1  SGN C   3      31.866  73.580  15.853  1.00 35.40     0.287 C 
HETATM    9  C2  SGN C   3      31.013  73.770  14.586  1.00 33.71     0.182 C 
HETATM   10  C3  SGN C   3      30.809  75.249  14.238  1.00 35.79     0.178 C 
HETATM   11  C4  SGN C   3      30.406  76.079  15.469  1.00 36.62     0.186 C 
HETATM   12  C5  SGN C   3      31.341  75.777  16.633  1.00 39.32     0.181 C 
HETATM   13  O5  SGN C   3      31.346  74.366  16.910  1.00 37.58    -0.349 OA
BRANCH   9  14
HETATM   14  N2  SGN C   3      31.654  73.113  13.468  1.00 29.28    -0.289 N 
ATOM     15  H2  SGN C   3      32.635  73.285  13.247  1.00  0.00     0.175 HD
BRANCH  14  16
HETATM   16  S1  SGN C   3      30.742  72.076  12.564  1.00 27.84     0.205 S 
HETATM   17  O1S SGN C   3      30.061  71.244  13.538  1.00 27.65    -0.578 OA
HETATM   18  O2S SGN C   3      31.723  71.311  11.737  1.00 27.72    -0.578 OA
HETATM   19  O3S SGN C   3      29.788  72.860  11.717  1.00 28.50    -0.578 OA
ENDBRANCH  14  16
ENDBRANCH   9  14
BRANCH  10  20
HETATM   20  O3  SGN C   3      29.815  75.366  13.223  1.00 34.89    -0.391 OA
ATOM     21  H3  SGN C   3      30.214  75.227  12.371  1.00  0.00     0.210 HD
ENDBRANCH  10  20
BRANCH  11  22
HETATM   22  O4  SGN C   3      30.510  77.479  15.150  1.00 37.13    -0.348 OA
BRANCH  22  23
HETATM   23  C1  UAP C   4      29.327  78.196  15.239  1.00 39.64     0.294 C 
HETATM   24  C2  UAP C   4      29.062  78.929  13.936  1.00 38.70     0.228 C 
HETATM   25  C3  UAP C   4      27.812  79.795  14.068  1.00 38.51     0.156 C 
HETATM   26  C4  UAP C   4      26.611  79.085  14.848  1.00 38.14     0.077 C 
HETATM   27  C5  UAP C   4      26.953  77.881  15.481  1.00 38.51     0.228 C 
HETATM   28  O5  UAP C   4      28.275  77.270  15.475  1.00 37.46    -0.343 OA
BRANCH  24  29
HETATM   29  O2  UAP C   4      30.179  79.821  13.624  1.00 40.54    -0.244 OA
BRANCH  29  30
HETATM   30  S   UAP C   4      30.359  81.217  14.387  1.00 40.49     0.252 S 
HETATM   31  O1S UAP C   4      31.776  81.591  14.268  1.00 40.89    -0.572 OA
HETATM   32  O2S UAP C   4      29.975  80.987  15.787  1.00 37.88    -0.572 OA
HETATM   33  O3S UAP C   4      29.476  82.189  13.725  1.00 37.47    -0.572 OA
ENDBRANCH  29  30
ENDBRANCH  24  29
BRANCH  25  34
HETATM   34  O3  UAP C   4      27.372  80.171  12.772  1.00 38.58    -0.393 OA
ATOM     35  H3  UAP C   4      27.759  81.009  12.546  1.00  0.00     0.210 HD
ENDBRANCH  25  34
BRANCH  27  36
HETATM   36  C6  UAP C   4      25.959  77.056  16.222  1.00 37.96     0.203 C 
HETATM   37  O6A UAP C   4      26.100  75.817  16.213  1.00 40.05    -0.646 OA
HETATM   38  O6B UAP C   4      25.030  77.642  16.816  1.00 36.71    -0.646 OA
ENDBRANCH  27  36
ENDBRANCH  22  23
ENDBRANCH  11  22
BRANCH  12  39
HETATM   39  C6  SGN C   3      30.980  76.478  17.913  1.00 42.65     0.227 C 
BRANCH  39  40
HETATM   40  O6  SGN C   3      30.199  75.529  18.671  1.00 51.09    -0.254 OA
BRANCH  40  41
HETATM   41  S2  SGN C   3      29.677  76.020  20.097  1.00 54.80     0.251 S 
HETATM   42  O4S SGN C   3      28.911  74.910  20.693  1.00 54.99    -0.572 OA
HETATM   43  O5S SGN C   3      28.817  77.215  19.848  1.00 53.99    -0.572 OA
HETATM   44  O6S SGN C   3      30.855  76.349  20.888  1.00 55.43    -0.572 OA
ENDBRANCH  40  41
ENDBRANCH  39  40
ENDBRANCH  12  39
ENDBRANCH   7   8
ENDBRANCH   4   7
BRANCH   3  45
HETATM   45  O3  IDS C   2      34.229  74.575  18.559  1.00 39.65    -0.390 OA
ATOM     46  H3  IDS C   2      34.039  74.556  19.489  1.00  0.00     0.210 HD
ENDBRANCH   3  45
BRANCH   5  47
HETATM   47  C6  IDS C   2      34.529  71.545  14.643  1.00 36.10     0.206 C 
HETATM   48  O6A IDS C   2      33.709  70.730  14.164  1.00 32.44    -0.646 OA
HETATM   49  O6B IDS C   2      35.403  72.139  13.969  1.00 33.44    -0.646 OA
ENDBRANCH   5  47
BRANCH   2  50
HETATM   50  O2  IDS C   2      33.553  72.353  20.104  1.00 43.59    -0.244 OA
BRANCH  50  51
HETATM   51  S   IDS C   2      34.441  73.132  21.177  1.00 44.11     0.252 S 
HETATM   52  O1S IDS C   2      33.780  74.462  21.404  1.00 44.48    -0.572 OA
HETATM   53  O2S IDS C   2      35.794  73.273  20.600  1.00 44.29    -0.572 OA
HETATM   54  O3S IDS C   2      34.451  72.322  22.382  1.00 44.74    -0.572 OA
ENDBRANCH  50  51
ENDBRANCH   2  50
BRANCH   1  55
HETATM   55  O4  SGN C   1      34.218  69.819  18.465  1.00 44.73    -0.348 OA
BRANCH  55  56
HETATM   56  C4  SGN C   1      35.139  69.962  19.569  1.00 48.25     0.186 C 
HETATM   57  C3  SGN C   1      34.661  69.115  20.755  1.00 48.43     0.178 C 
HETATM   58  C2  SGN C   1      35.707  69.136  21.869  1.00 48.58     0.181 C 
HETATM   59  C1  SGN C   1      37.087  68.734  21.352  1.00 50.40     0.283 C 
HETATM   60  O5  SGN C   1      37.463  69.569  20.250  1.00 50.82    -0.349 OA
HETATM   61  C5  SGN C   1      36.538  69.490  19.140  1.00 51.58     0.181 C 
BRANCH  57  62
HETATM   62  O3  SGN C   1      33.436  69.627  21.253  1.00 46.09    -0.391 OA
ATOM     63  H3  SGN C   1      32.717  69.277  20.739  1.00  0.00     0.210 HD
ENDBRANCH  57  62
BRANCH  58  64
HETATM   64  N2  SGN C   1      35.315  68.251  22.947  1.00 48.56    -0.289 N 
ATOM     65  H2  SGN C   1      35.140  67.256  22.807  1.00  0.00     0.175 HD
BRANCH  64  66
HETATM   66  S1  SGN C   1      35.175  68.985  24.423  1.00 47.67     0.205 S 
HETATM   67  O1S SGN C   1      33.920  69.768  24.391  1.00 47.59    -0.578 OA
HETATM   68  O2S SGN C   1      36.363  69.836  24.550  1.00 48.55    -0.578 OA
HETATM   69  O3S SGN C   1      35.140  67.904  25.432  1.00 47.08    -0.578 OA
ENDBRANCH  64  66
ENDBRANCH  58  64
BRANCH  59  70
HETATM   70  O1  SGN C   1      37.065  67.416  20.921  1.00 51.36    -0.369 OA
ATOM     71  H1  SGN C   1      36.934  66.836  21.662  1.00  0.00     0.212 HD
ENDBRANCH  59  70
BRANCH  61  72
HETATM   72  C6  SGN C   1      37.122  70.332  18.032  1.00 55.48     0.227 C 
BRANCH  72  73
HETATM   73  O6  SGN C   1      37.086  69.591  16.793  1.00 61.59    -0.254 OA
BRANCH  73  74
HETATM   74  S2  SGN C   1      38.093  70.104  15.670  1.00 65.98     0.251 S 
HETATM   75  O4S SGN C   1      37.539  69.639  14.321  1.00 65.09    -0.572 OA
HETATM   76  O5S SGN C   1      39.380  69.500  15.962  1.00 65.58    -0.572 OA
HETATM   77  O6S SGN C   1      38.144  71.660  15.773  1.00 65.84    -0.572 OA
ENDBRANCH  73  74
ENDBRANCH  72  73
ENDBRANCH  61  72
ENDBRANCH  55  56
ENDBRANCH   1  55
TORSDOF 27
ENDMDL
MODEL 55
REMARK VINA RESULT:      -5.4      5.768     13.042
REMARK  27 active torsions:
REMARK  status: ('A' for Active; 'I' for Inactive)
REMARK    1  A    between atoms: C1_1  and  O1_2 
REMARK    2  A    between atoms: S1_5  and  N2_7 
REMARK    3  A    between atoms: C2_6  and  N2_7 
REMARK    4  A    between atoms: S2_10  and  O6_22 
REMARK    5  A    between atoms: C3_11  and  O3_12 
REMARK    6  A    between atoms: C4_15  and  O4_16 
REMARK    7  A    between atoms: O4_16  and  C1_24 
REMARK    8  A    between atoms: C5_18  and  C6_21 
REMARK    9  A    between atoms: C6_21  and  O6_22 
REMARK   10  A    between atoms: C2_26  and  O2_27 
REMARK   11  A    between atoms: O2_27  and  S_40 
REMARK   12  A    between atoms: C3_29  and  O3_30 
REMARK   13  A    between atoms: C4_33  and  O4_34 
REMARK   14  A    between atoms: O4_34  and  C1_41 
REMARK   15  A    between atoms: C5_35  and  C6_37 
REMARK   16  A    between atoms: S1_43  and  N2_45 
REMARK   17  A    between atoms: C2_44  and  N2_45 
REMARK   18  A    between atoms: S2_48  and  O6_60 
REMARK   19  A    between atoms: C3_49  and  O3_50 
REMARK   20  A    between atoms: C4_53  and  O4_54 
REMARK   21  A    between atoms: O4_54  and  C1_62 
REMARK   22  A    between atoms: C5_56  and  C6_59 
REMARK   23  A    between atoms: C6_59  and  O6_60 
REMARK   24  A    between atoms: C2_64  and  O2_65 
REMARK   25  A    between atoms: O2_65  and  S_77 
REMARK   26  A    between atoms: C3_67  and  O3_68 
REMARK   27  A    between atoms: C5_72  and  C6_74 
ROOT
HETATM    1  C1  IDS C   2      26.331  81.691  13.044  1.00 40.81     0.294 C 
HETATM    2  C2  IDS C   2      25.609  80.463  13.603  1.00 40.20     0.231 C 
HETATM    3  C3  IDS C   2      24.250  80.274  12.936  1.00 39.01     0.185 C 
HETATM    4  C4  IDS C   2      23.345  81.501  13.170  1.00 37.65     0.195 C 
HETATM    5  C5  IDS C   2      24.203  82.721  13.526  1.00 35.99     0.257 C 
HETATM    6  O5  IDS C   2      25.394  82.736  12.702  1.00 39.00    -0.340 OA
ENDROOT
BRANCH   4   7
HETATM    7  O4  IDS C   2      22.567  81.772  11.977  1.00 35.98    -0.348 OA
BRANCH   7   8
HETATM    8  C1  SGN C   3      21.249  81.293  11.979  1.00 35.40     0.287 C 
HETATM    9  C2  SGN C   3      20.834  80.878  10.556  1.00 33.71     0.182 C 
HETATM   10  C3  SGN C   3      20.595  82.087   9.643  1.00 35.79     0.178 C 
HETATM   11  C4  SGN C   3      19.730  83.160  10.326  1.00 36.62     0.186 C 
HETATM   12  C5  SGN C   3      20.267  83.457  11.720  1.00 39.32     0.181 C 
HETATM   13  O5  SGN C   3      20.334  82.245  12.493  1.00 37.58    -0.349 OA
BRANCH   9  14
HETATM   14  N2  SGN C   3      21.868  80.052   9.973  1.00 29.28    -0.289 N 
ATOM     15  H2  SGN C   3      22.709  80.466   9.570  1.00  0.00     0.175 HD
BRANCH  14  16
HETATM   16  S1  SGN C   3      21.640  78.417   9.984  1.00 27.84     0.205 S 
HETATM   17  O1S SGN C   3      20.316  78.230   9.421  1.00 27.65    -0.578 OA
HETATM   18  O2S SGN C   3      21.716  78.020  11.422  1.00 27.72    -0.578 OA
HETATM   19  O3S SGN C   3      22.706  77.760   9.164  1.00 28.50    -0.578 OA
ENDBRANCH  14  16
ENDBRANCH   9  14
BRANCH  10  20
HETATM   20  O3  SGN C   3      19.975  81.654   8.435  1.00 34.89    -0.391 OA
ATOM     21  H3  SGN C   3      19.046  81.522   8.585  1.00  0.00     0.210 HD
ENDBRANCH  10  20
BRANCH  11  22
HETATM   22  O4  SGN C   3      19.779  84.371   9.550  1.00 37.13    -0.348 OA
BRANCH  22  23
HETATM   23  C1  UAP C   4      18.601  84.709   8.903  1.00 39.64     0.294 C 
HETATM   24  C2  UAP C   4      18.424  86.217   8.894  1.00 38.70     0.228 C 
HETATM   25  C3  UAP C   4      17.081  86.583   8.269  1.00 38.51     0.156 C 
HETATM   26  C4  UAP C   4      16.717  85.726   6.969  1.00 38.14     0.077 C 
HETATM   27  C5  UAP C   4      17.562  84.632   6.733  1.00 38.51     0.228 C 
HETATM   28  O5  UAP C   4      18.694  84.245   7.562  1.00 37.46    -0.343 OA
BRANCH  24  29
HETATM   29  O2  UAP C   4      18.420  86.730  10.265  1.00 40.54    -0.244 OA
BRANCH  29  30
HETATM   30  S   UAP C   4      19.429  87.888  10.716  1.00 40.49     0.252 S 
HETATM   31  O1S UAP C   4      19.265  88.995   9.761  1.00 40.89    -0.572 OA
HETATM   32  O2S UAP C   4      20.783  87.318  10.657  1.00 37.88    -0.572 OA
HETATM   33  O3S UAP C   4      19.055  88.281  12.083  1.00 37.47    -0.572 OA
ENDBRANCH  29  30
ENDBRANCH  24  29
BRANCH  25  34
HETATM   34  O3  UAP C   4      17.088  87.962   7.934  1.00 38.58    -0.393 OA
ATOM     35  H3  UAP C   4      16.295  88.167   7.452  1.00  0.00     0.210 HD
ENDBRANCH  25  34
BRANCH  27  36
HETATM   36  C6  UAP C   4      17.405  83.741   5.550  1.00 37.96     0.203 C 
HETATM   37  O6A UAP C   4      16.536  84.032   4.704  1.00 40.05    -0.646 OA
HETATM   38  O6B UAP C   4      18.149  82.741   5.459  1.00 36.71    -0.646 OA
ENDBRANCH  27  36
ENDBRANCH  22  23
ENDBRANCH  11  22
BRANCH  12  39
HETATM   39  C6  SGN C   3      19.438  84.436  12.505  1.00 42.65     0.227 C 
BRANCH  39  40
HETATM   40  O6  SGN C   3      18.069  84.005  12.346  1.00 51.09    -0.254 OA
BRANCH  40  41
HETATM   41  S2  SGN C   3      17.046  84.466  13.480  1.00 54.80     0.251 S 
HETATM   42  O4S SGN C   3      15.804  83.694  13.294  1.00 54.99    -0.572 OA
HETATM   43  O5S SGN C   3      16.823  85.929  13.284  1.00 53.99    -0.572 OA
HETATM   44  O6S SGN C   3      17.675  84.175  14.762  1.00 55.43    -0.572 OA
ENDBRANCH  40  41
ENDBRANCH  39  40
ENDBRANCH  12  39
ENDBRANCH   7   8
ENDBRANCH   4   7
BRANCH   3  45
HETATM   45  O3  IDS C   2      23.625  79.108  13.455  1.00 39.65    -0.390 OA
ATOM     46  H3  IDS C   2      23.877  78.991  14.363  1.00  0.00     0.210 HD
ENDBRANCH   3  45
BRANCH   5  47
HETATM   47  C6  IDS C   2      23.507  84.066  13.364  1.00 36.10     0.206 C 
HETATM   48  O6A IDS C   2      22.533  84.308  14.111  1.00 32.44    -0.646 OA
HETATM   49  O6B IDS C   2      23.950  84.867  12.507  1.00 33.44    -0.646 OA
ENDBRANCH   5  47
BRANCH   2  50
HETATM   50  O2  IDS C   2      26.408  79.269  13.356  1.00 43.59    -0.244 OA
BRANCH  50  51
HETATM   51  S   IDS C   2      26.994  78.442  14.589  1.00 44.11     0.252 S 
HETATM   52  O1S IDS C   2      25.817  77.993  15.408  1.00 44.48    -0.572 OA
HETATM   53  O2S IDS C   2      27.881  79.355  15.341  1.00 44.29    -0.572 OA
HETATM   54  O3S IDS C   2      27.725  77.318  14.033  1.00 44.74    -0.572 OA
ENDBRANCH  50  51
ENDBRANCH   2  50
BRANCH   1  55
HETATM   55  O4  SGN C   1      27.213  82.183  13.995  1.00 44.73    -0.348 OA
BRANCH  55  56
HETATM   56  C4  SGN C   1      28.071  83.279  13.610  1.00 48.25     0.186 C 
HETATM   57  C3  SGN C   1      28.134  84.311  14.743  1.00 48.43     0.178 C 
HETATM   58  C2  SGN C   1      29.158  85.395  14.409  1.00 48.58     0.181 C 
HETATM   59  C1  SGN C   1      30.518  84.794  14.058  1.00 50.40     0.283 C 
HETATM   60  O5  SGN C   1      30.378  83.845  12.994  1.00 50.82    -0.349 OA
HETATM   61  C5  SGN C   1      29.488  82.753  13.325  1.00 51.58     0.181 C 
BRANCH  57  62
HETATM   62  O3  SGN C   1      26.860  84.910  14.923  1.00 46.09    -0.391 OA
ATOM     63  H3  SGN C   1      26.876  85.793  14.573  1.00  0.00     0.210 HD
ENDBRANCH  57  62
BRANCH  58  64
HETATM   64  N2  SGN C   1      29.304  86.313  15.520  1.00 48.56    -0.289 N 
ATOM     65  H2  SGN C   1      29.618  86.015  16.444  1.00  0.00     0.175 HD
BRANCH  64  66
HETATM   66  S1  SGN C   1      28.919  87.884  15.170  1.00 47.67     0.205 S 
HETATM   67  O1S SGN C   1      28.698  88.566  16.464  1.00 47.59    -0.578 OA
HETATM   68  O2S SGN C   1      27.701  87.815  14.357  1.00 48.55    -0.578 OA
HETATM   69  O3S SGN C   1      30.068  88.445  14.425  1.00 47.08    -0.578 OA
ENDBRANCH  64  66
ENDBRANCH  58  64
BRANCH  59  70
HETATM   70  O1  SGN C   1      31.047  84.146  15.165  1.00 51.36    -0.369 OA
ATOM     71  H1  SGN C   1      30.669  83.278  15.241  1.00  0.00     0.212 HD
ENDBRANCH  59  70
BRANCH  61  72
HETATM   72  C6  SGN C   1      29.529  81.796  12.160  1.00 55.48     0.227 C 
BRANCH  72  73
HETATM   73  O6  SGN C   1      29.822  80.465  12.639  1.00 61.59    -0.254 OA
BRANCH  73  74
HETATM   74  S2  SGN C   1      30.390  79.461  11.539  1.00 65.98     0.251 S 
HETATM   75  O4S SGN C   1      30.321  78.053  12.136  1.00 65.09    -0.572 OA
HETATM   76  O5S SGN C   1      31.757  79.868  11.274  1.00 65.58    -0.572 OA
HETATM   77  O6S SGN C   1      29.485  79.603  10.275  1.00 65.84    -0.572 OA
ENDBRANCH  73  74
ENDBRANCH  72  73
ENDBRANCH  61  72
ENDBRANCH  55  56
ENDBRANCH   1  55
TORSDOF 27
ENDMDL
MODEL 56
REMARK VINA RESULT:      -5.3      6.404     13.659
REMARK  27 active torsions:
REMARK  status: ('A' for Active; 'I' for Inactive)
REMARK    1  A    between atoms: C1_1  and  O1_2 
REMARK    2  A    between atoms: S1_5  and  N2_7 
REMARK    3  A    between atoms: C2_6  and  N2_7 
REMARK    4  A    between atoms: S2_10  and  O6_22 
REMARK    5  A    between atoms: C3_11  and  O3_12 
REMARK    6  A    between atoms: C4_15  and  O4_16 
REMARK    7  A    between atoms: O4_16  and  C1_24 
REMARK    8  A    between atoms: C5_18  and  C6_21 
REMARK    9  A    between atoms: C6_21  and  O6_22 
REMARK   10  A    between atoms: C2_26  and  O2_27 
REMARK   11  A    between atoms: O2_27  and  S_40 
REMARK   12  A    between atoms: C3_29  and  O3_30 
REMARK   13  A    between atoms: C4_33  and  O4_34 
REMARK   14  A    between atoms: O4_34  and  C1_41 
REMARK   15  A    between atoms: C5_35  and  C6_37 
REMARK   16  A    between atoms: S1_43  and  N2_45 
REMARK   17  A    between atoms: C2_44  and  N2_45 
REMARK   18  A    between atoms: S2_48  and  O6_60 
REMARK   19  A    between atoms: C3_49  and  O3_50 
REMARK   20  A    between atoms: C4_53  and  O4_54 
REMARK   21  A    between atoms: O4_54  and  C1_62 
REMARK   22  A    between atoms: C5_56  and  C6_59 
REMARK   23  A    between atoms: C6_59  and  O6_60 
REMARK   24  A    between atoms: C2_64  and  O2_65 
REMARK   25  A    between atoms: O2_65  and  S_77 
REMARK   26  A    between atoms: C3_67  and  O3_68 
REMARK   27  A    between atoms: C5_72  and  C6_74 
ROOT
HETATM    1  C1  IDS C   2      24.984  82.057  12.107  1.00 40.81     0.294 C 
HETATM    2  C2  IDS C   2      25.060  83.527  11.686  1.00 40.20     0.231 C 
HETATM    3  C3  IDS C   2      23.766  83.971  11.008  1.00 39.01     0.185 C 
HETATM    4  C4  IDS C   2      23.488  83.132   9.745  1.00 37.65     0.195 C 
HETATM    5  C5  IDS C   2      24.258  81.807   9.819  1.00 35.99     0.257 C 
HETATM    6  O5  IDS C   2      24.201  81.286  11.169  1.00 39.00    -0.340 OA
ENDROOT
BRANCH   4   7
HETATM    7  O4  IDS C   2      22.066  82.874   9.630  1.00 35.98    -0.348 OA
BRANCH   7   8
HETATM    8  C1  SGN C   3      21.469  82.218  10.716  1.00 35.40     0.287 C 
HETATM    9  C2  SGN C   3      20.173  81.521  10.266  1.00 33.71     0.182 C 
HETATM   10  C3  SGN C   3      19.038  82.517  10.000  1.00 35.79     0.178 C 
HETATM   11  C4  SGN C   3      18.905  83.552  11.130  1.00 36.62     0.186 C 
HETATM   12  C5  SGN C   3      20.268  84.146  11.459  1.00 39.32     0.181 C 
HETATM   13  O5  SGN C   3      21.197  83.099  11.791  1.00 37.58    -0.349 OA
BRANCH   9  14
HETATM   14  N2  SGN C   3      20.424  80.768   9.057  1.00 29.28    -0.289 N 
ATOM     15  H2  SGN C   3      20.875  81.200   8.251  1.00  0.00     0.175 HD
BRANCH  14  16
HETATM   16  S1  SGN C   3      19.954  79.185   9.029  1.00 27.84     0.205 S 
HETATM   17  O1S SGN C   3      20.659  78.615   7.896  1.00 27.65    -0.578 OA
HETATM   18  O2S SGN C   3      18.475  79.218   8.830  1.00 27.72    -0.578 OA
HETATM   19  O3S SGN C   3      20.330  78.531  10.322  1.00 28.50    -0.578 OA
ENDBRANCH  14  16
ENDBRANCH   9  14
BRANCH  10  20
HETATM   20  O3  SGN C   3      17.811  81.809   9.838  1.00 34.89    -0.391 OA
ATOM     21  H3  SGN C   3      17.084  82.418   9.890  1.00  0.00     0.210 HD
ENDBRANCH  10  20
BRANCH  11  22
HETATM   22  O4  SGN C   3      18.035  84.614  10.699  1.00 37.13    -0.348 OA
BRANCH  22  23
HETATM   23  C1  UAP C   4      16.902  84.805  11.474  1.00 39.64     0.294 C 
HETATM   24  C2  UAP C   4      16.445  86.250  11.384  1.00 38.70     0.228 C 
HETATM   25  C3  UAP C   4      15.257  86.482  12.313  1.00 38.51     0.156 C 
HETATM   26  C4  UAP C   4      14.182  85.299  12.298  1.00 38.14     0.077 C 
HETATM   27  C5  UAP C   4      14.592  84.142  11.618  1.00 38.51     0.228 C 
HETATM   28  O5  UAP C   4      15.879  83.961  10.962  1.00 37.46    -0.343 OA
BRANCH  24  29
HETATM   29  O2  UAP C   4      17.519  87.145  11.818  1.00 40.54    -0.244 OA
BRANCH  29  30
HETATM   30  S   UAP C   4      18.019  88.346  10.886  1.00 40.49     0.252 S 
HETATM   31  O1S UAP C   4      19.234  88.893  11.508  1.00 40.89    -0.572 OA
HETATM   32  O2S UAP C   4      16.934  89.338  10.852  1.00 37.88    -0.572 OA
HETATM   33  O3S UAP C   4      18.290  87.778   9.556  1.00 37.47    -0.572 OA
ENDBRANCH  29  30
ENDBRANCH  24  29
BRANCH  25  34
HETATM   34  O3  UAP C   4      14.620  87.698  11.954  1.00 38.58    -0.393 OA
ATOM     35  H3  UAP C   4      14.046  87.539  11.214  1.00  0.00     0.210 HD
ENDBRANCH  25  34
BRANCH  27  36
HETATM   36  C6  UAP C   4      13.713  82.951  11.463  1.00 37.96     0.203 C 
HETATM   37  O6A UAP C   4      12.776  83.014  10.643  1.00 40.05    -0.646 OA
HETATM   38  O6B UAP C   4      13.952  81.944  12.164  1.00 36.71    -0.646 OA
ENDBRANCH  27  36
ENDBRANCH  22  23
ENDBRANCH  11  22
BRANCH  12  39
HETATM   39  C6  SGN C   3      20.259  85.111  12.612  1.00 42.65     0.227 C 
BRANCH  39  40
HETATM   40  O6  SGN C   3      19.391  84.524  13.605  1.00 51.09    -0.254 OA
BRANCH  40  41
HETATM   41  S2  SGN C   3      19.993  84.383  15.077  1.00 54.80     0.251 S 
HETATM   42  O4S SGN C   3      20.970  83.279  15.050  1.00 54.99    -0.572 OA
HETATM   43  O5S SGN C   3      18.843  84.083  15.981  1.00 53.99    -0.572 OA
HETATM   44  O6S SGN C   3      20.625  85.655  15.399  1.00 55.43    -0.572 OA
ENDBRANCH  40  41
ENDBRANCH  39  40
ENDBRANCH  12  39
ENDBRANCH   7   8
ENDBRANCH   4   7
BRANCH   3  45
HETATM   45  O3  IDS C   2      23.860  85.346  10.663  1.00 39.65    -0.390 OA
ATOM     46  H3  IDS C   2      23.215  85.550   9.997  1.00  0.00     0.210 HD
ENDBRANCH   3  45
BRANCH   5  47
HETATM   47  C6  IDS C   2      23.758  80.719   8.878  1.00 36.10     0.206 C 
HETATM   48  O6A IDS C   2      23.410  79.630   9.383  1.00 32.44    -0.646 OA
HETATM   49  O6B IDS C   2      23.706  80.972   7.650  1.00 33.44    -0.646 OA
ENDBRANCH   5  47
BRANCH   2  50
HETATM   50  O2  IDS C   2      25.270  84.363  12.861  1.00 43.59    -0.244 OA
BRANCH  50  51
HETATM   51  S   IDS C   2      26.384  85.505  12.826  1.00 44.11     0.252 S 
HETATM   52  O1S IDS C   2      27.053  85.500  14.172  1.00 44.48    -0.572 OA
HETATM   53  O2S IDS C   2      25.689  86.781  12.555  1.00 44.29    -0.572 OA
HETATM   54  O3S IDS C   2      27.309  85.160  11.762  1.00 44.74    -0.572 OA
ENDBRANCH  50  51
ENDBRANCH   2  50
BRANCH   1  55
HETATM   55  O4  SGN C   1      26.264  81.523  12.158  1.00 44.73    -0.348 OA
BRANCH  55  56
HETATM   56  C4  SGN C   1      26.735  81.033  13.432  1.00 48.25     0.186 C 
HETATM   57  C3  SGN C   1      26.278  79.583  13.631  1.00 48.43     0.178 C 
HETATM   58  C2  SGN C   1      26.901  79.007  14.902  1.00 48.58     0.181 C 
HETATM   59  C1  SGN C   1      28.419  79.172  14.909  1.00 50.40     0.283 C 
HETATM   60  O5  SGN C   1      28.766  80.550  14.720  1.00 50.82    -0.349 OA
HETATM   61  C5  SGN C   1      28.271  81.092  13.474  1.00 51.58     0.181 C 
BRANCH  57  62
HETATM   62  O3  SGN C   1      24.864  79.531  13.737  1.00 46.09    -0.391 OA
ATOM     63  H3  SGN C   1      24.481  79.635  12.874  1.00  0.00     0.210 HD
ENDBRANCH  57  62
BRANCH  58  64
HETATM   64  N2  SGN C   1      26.564  77.605  15.040  1.00 48.56    -0.289 N 
ATOM     65  H2  SGN C   1      26.739  76.921  14.303  1.00  0.00     0.175 HD
BRANCH  64  66
HETATM   66  S1  SGN C   1      25.872  77.202  16.488  1.00 47.67     0.205 S 
HETATM   67  O1S SGN C   1      25.369  75.818  16.349  1.00 47.59    -0.578 OA
HETATM   68  O2S SGN C   1      24.792  78.174  16.687  1.00 48.55    -0.578 OA
HETATM   69  O3S SGN C   1      26.934  77.316  17.511  1.00 47.08    -0.578 OA
ENDBRANCH  64  66
ENDBRANCH  58  64
BRANCH  59  70
HETATM   70  O1  SGN C   1      28.980  78.429  13.880  1.00 51.36    -0.369 OA
ATOM     71  H1  SGN C   1      28.528  77.598  13.799  1.00  0.00     0.212 HD
ENDBRANCH  59  70
BRANCH  61  72
HETATM   72  C6  SGN C   1      28.803  82.500  13.374  1.00 55.48     0.227 C 
BRANCH  72  73
HETATM   73  O6  SGN C   1      30.236  82.489  13.553  1.00 61.59    -0.254 OA
BRANCH  73  74
HETATM   74  S2  SGN C   1      30.763  83.261  14.843  1.00 65.98     0.251 S 
HETATM   75  O4S SGN C   1      31.546  82.251  15.685  1.00 65.09    -0.572 OA
HETATM   76  O5S SGN C   1      29.588  83.751  15.541  1.00 65.58    -0.572 OA
HETATM   77  O6S SGN C   1      31.670  84.428  14.342  1.00 65.84    -0.572 OA
ENDBRANCH  73  74
ENDBRANCH  72  73
ENDBRANCH  61  72
ENDBRANCH  55  56
ENDBRANCH   1  55
TORSDOF 27
ENDMDL
MODEL 57
REMARK VINA RESULT:      -5.3      5.998     12.626
REMARK  27 active torsions:
REMARK  status: ('A' for Active; 'I' for Inactive)
REMARK    1  A    between atoms: C1_1  and  O1_2 
REMARK    2  A    between atoms: S1_5  and  N2_7 
REMARK    3  A    between atoms: C2_6  and  N2_7 
REMARK    4  A    between atoms: S2_10  and  O6_22 
REMARK    5  A    between atoms: C3_11  and  O3_12 
REMARK    6  A    between atoms: C4_15  and  O4_16 
REMARK    7  A    between atoms: O4_16  and  C1_24 
REMARK    8  A    between atoms: C5_18  and  C6_21 
REMARK    9  A    between atoms: C6_21  and  O6_22 
REMARK   10  A    between atoms: C2_26  and  O2_27 
REMARK   11  A    between atoms: O2_27  and  S_40 
REMARK   12  A    between atoms: C3_29  and  O3_30 
REMARK   13  A    between atoms: C4_33  and  O4_34 
REMARK   14  A    between atoms: O4_34  and  C1_41 
REMARK   15  A    between atoms: C5_35  and  C6_37 
REMARK   16  A    between atoms: S1_43  and  N2_45 
REMARK   17  A    between atoms: C2_44  and  N2_45 
REMARK   18  A    between atoms: S2_48  and  O6_60 
REMARK   19  A    between atoms: C3_49  and  O3_50 
REMARK   20  A    between atoms: C4_53  and  O4_54 
REMARK   21  A    between atoms: O4_54  and  C1_62 
REMARK   22  A    between atoms: C5_56  and  C6_59 
REMARK   23  A    between atoms: C6_59  and  O6_60 
REMARK   24  A    between atoms: C2_64  and  O2_65 
REMARK   25  A    between atoms: O2_65  and  S_77 
REMARK   26  A    between atoms: C3_67  and  O3_68 
REMARK   27  A    between atoms: C5_72  and  C6_74 
ROOT
HETATM    1  C1  IDS C   2      25.857  82.835  13.246  1.00 40.81     0.294 C 
HETATM    2  C2  IDS C   2      25.536  81.347  13.413  1.00 40.20     0.231 C 
HETATM    3  C3  IDS C   2      24.436  80.912  12.450  1.00 39.01     0.185 C 
HETATM    4  C4  IDS C   2      23.137  81.705  12.699  1.00 37.65     0.195 C 
HETATM    5  C5  IDS C   2      23.458  83.010  13.439  1.00 35.99     0.257 C 
HETATM    6  O5  IDS C   2      24.672  83.588  12.903  1.00 39.00    -0.340 OA
ENDROOT
BRANCH   4   7
HETATM    7  O4  IDS C   2      22.490  81.997  11.435  1.00 35.98    -0.348 OA
BRANCH   7   8
HETATM    8  C1  SGN C   3      21.376  81.208  11.116  1.00 35.40     0.287 C 
HETATM    9  C2  SGN C   3      21.554  80.579   9.723  1.00 33.71     0.182 C 
HETATM   10  C3  SGN C   3      21.388  81.604   8.595  1.00 35.79     0.178 C 
HETATM   11  C4  SGN C   3      20.143  82.485   8.797  1.00 36.62     0.186 C 
HETATM   12  C5  SGN C   3      20.112  83.028  10.221  1.00 39.32     0.181 C 
HETATM   13  O5  SGN C   3      20.166  81.944  11.165  1.00 37.58    -0.349 OA
BRANCH   9  14
HETATM   14  N2  SGN C   3      22.870  79.988   9.625  1.00 29.28    -0.289 N 
ATOM     15  H2  SGN C   3      23.694  80.561   9.447  1.00  0.00     0.175 HD
BRANCH  14  16
HETATM   16  S1  SGN C   3      22.990  78.351   9.809  1.00 27.84     0.205 S 
HETATM   17  O1S SGN C   3      22.189  78.056  10.982  1.00 27.65    -0.578 OA
HETATM   18  O2S SGN C   3      24.444  78.086  10.022  1.00 27.72    -0.578 OA
HETATM   19  O3S SGN C   3      22.471  77.672   8.580  1.00 28.50    -0.578 OA
ENDBRANCH  14  16
ENDBRANCH   9  14
BRANCH  10  20
HETATM   20  O3  SGN C   3      21.309  80.926   7.344  1.00 34.89    -0.391 OA
ATOM     21  H3  SGN C   3      20.398  80.838   7.088  1.00  0.00     0.210 HD
ENDBRANCH  10  20
BRANCH  11  22
HETATM   22  O4  SGN C   3      20.197  83.596   7.885  1.00 37.13    -0.348 OA
BRANCH  22  23
HETATM   23  C1  UAP C   4      19.371  83.494   6.777  1.00 39.64     0.294 C 
HETATM   24  C2  UAP C   4      20.204  83.336   5.517  1.00 38.70     0.228 C 
HETATM   25  C3  UAP C   4      19.298  83.322   4.289  1.00 38.51     0.156 C 
HETATM   26  C4  UAP C   4      17.962  82.465   4.480  1.00 38.14     0.077 C 
HETATM   27  C5  UAP C   4      17.715  82.048   5.796  1.00 38.51     0.228 C 
HETATM   28  O5  UAP C   4      18.560  82.339   6.946  1.00 37.46    -0.343 OA
BRANCH  24  29
HETATM   29  O2  UAP C   4      21.117  84.471   5.372  1.00 40.54    -0.244 OA
BRANCH  29  30
HETATM   30  S   UAP C   4      22.698  84.285   5.540  1.00 40.49     0.252 S 
HETATM   31  O1S UAP C   4      23.066  84.896   6.826  1.00 40.89    -0.572 OA
HETATM   32  O2S UAP C   4      23.329  84.979   4.409  1.00 37.88    -0.572 OA
HETATM   33  O3S UAP C   4      22.967  82.839   5.521  1.00 37.47    -0.572 OA
ENDBRANCH  29  30
ENDBRANCH  24  29
BRANCH  25  34
HETATM   34  O3  UAP C   4      20.027  82.813   3.184  1.00 38.58    -0.393 OA
ATOM     35  H3  UAP C   4      19.899  83.387   2.438  1.00  0.00     0.210 HD
ENDBRANCH  25  34
BRANCH  27  36
HETATM   36  C6  UAP C   4      16.541  81.208   6.163  1.00 37.96     0.203 C 
HETATM   37  O6A UAP C   4      15.625  81.080   5.327  1.00 40.05    -0.646 OA
HETATM   38  O6B UAP C   4      16.527  80.672   7.291  1.00 36.71    -0.646 OA
ENDBRANCH  27  36
ENDBRANCH  22  23
ENDBRANCH  11  22
BRANCH  12  39
HETATM   39  C6  SGN C   3      18.886  83.836  10.546  1.00 42.65     0.227 C 
BRANCH  39  40
HETATM   40  O6  SGN C   3      17.770  82.933  10.390  1.00 51.09    -0.254 OA
BRANCH  40  41
HETATM   41  S2  SGN C   3      16.345  83.481  10.855  1.00 54.80     0.251 S 
HETATM   42  O4S SGN C   3      15.894  84.454   9.844  1.00 54.99    -0.572 OA
HETATM   43  O5S SGN C   3      16.550  84.122  12.189  1.00 53.99    -0.572 OA
HETATM   44  O6S SGN C   3      15.455  82.331  10.933  1.00 55.43    -0.572 OA
ENDBRANCH  40  41
ENDBRANCH  39  40
ENDBRANCH  12  39
ENDBRANCH   7   8
ENDBRANCH   4   7
BRANCH   3  45
HETATM   45  O3  IDS C   2      24.189  79.521  12.610  1.00 39.65    -0.390 OA
ATOM     46  H3  IDS C   2      23.433  79.272  12.092  1.00  0.00     0.210 HD
ENDBRANCH   3  45
BRANCH   5  47
HETATM   47  C6  IDS C   2      22.368  84.071  13.373  1.00 36.10     0.206 C 
HETATM   48  O6A IDS C   2      21.373  83.927  14.118  1.00 32.44    -0.646 OA
HETATM   49  O6B IDS C   2      22.526  85.040  12.592  1.00 33.44    -0.646 OA
ENDBRANCH   5  47
BRANCH   2  50
HETATM   50  O2  IDS C   2      26.727  80.554  13.134  1.00 43.59    -0.244 OA
BRANCH  50  51
HETATM   51  S   IDS C   2      27.485  79.822  14.333  1.00 44.11     0.252 S 
HETATM   52  O1S IDS C   2      26.452  79.525  15.383  1.00 44.48    -0.572 OA
HETATM   53  O2S IDS C   2      28.525  80.752  14.821  1.00 44.29    -0.572 OA
HETATM   54  O3S IDS C   2      28.064  78.608  13.786  1.00 44.74    -0.572 OA
ENDBRANCH  50  51
ENDBRANCH   2  50
BRANCH   1  55
HETATM   55  O4  SGN C   1      26.369  83.334  14.435  1.00 44.73    -0.348 OA
BRANCH  55  56
HETATM   56  C4  SGN C   1      26.966  84.649  14.407  1.00 48.25     0.186 C 
HETATM   57  C3  SGN C   1      27.558  84.980  15.782  1.00 48.43     0.178 C 
HETATM   58  C2  SGN C   1      28.325  86.300  15.720  1.00 48.58     0.181 C 
HETATM   59  C1  SGN C   1      29.362  86.294  14.597  1.00 50.40     0.283 C 
HETATM   60  O5  SGN C   1      28.734  85.981  13.348  1.00 50.82    -0.349 OA
HETATM   61  C5  SGN C   1      28.084  84.689  13.351  1.00 51.58     0.181 C 
BRANCH  57  62
HETATM   62  O3  SGN C   1      26.519  85.087  16.743  1.00 46.09    -0.391 OA
ATOM     63  H3  SGN C   1      26.721  84.530  17.486  1.00  0.00     0.210 HD
ENDBRANCH  57  62
BRANCH  58  64
HETATM   64  N2  SGN C   1      28.980  86.565  16.984  1.00 48.56    -0.289 N 
ATOM     65  H2  SGN C   1      29.759  86.005  17.329  1.00  0.00     0.175 HD
BRANCH  64  66
HETATM   66  S1  SGN C   1      28.360  87.849  17.823  1.00 47.67     0.205 S 
HETATM   67  O1S SGN C   1      28.440  87.498  19.258  1.00 47.59    -0.578 OA
HETATM   68  O2S SGN C   1      26.978  87.990  17.356  1.00 48.55    -0.578 OA
HETATM   69  O3S SGN C   1      29.197  89.021  17.482  1.00 47.08    -0.578 OA
ENDBRANCH  64  66
ENDBRANCH  58  64
BRANCH  59  70
HETATM   70  O1  SGN C   1      30.334  85.339  14.857  1.00 51.36    -0.369 OA
ATOM     71  H1  SGN C   1      31.124  85.542  14.371  1.00  0.00     0.212 HD
ENDBRANCH  59  70
BRANCH  61  72
HETATM   72  C6  SGN C   1      27.570  84.461  11.951  1.00 55.48     0.227 C 
BRANCH  72  73
HETATM   73  O6  SGN C   1      28.584  83.799  11.166  1.00 61.59    -0.254 OA
BRANCH  73  74
HETATM   74  S2  SGN C   1      28.033  82.864   9.998  1.00 65.98     0.251 S 
HETATM   75  O4S SGN C   1      26.533  83.140   9.870  1.00 65.09    -0.572 OA
HETATM   76  O5S SGN C   1      28.298  81.496  10.403  1.00 65.58    -0.572 OA
HETATM   77  O6S SGN C   1      28.809  83.246   8.698  1.00 65.84    -0.572 OA
ENDBRANCH  73  74
ENDBRANCH  72  73
ENDBRANCH  61  72
ENDBRANCH  55  56
ENDBRANCH   1  55
TORSDOF 27
ENDMDL
MODEL 58
REMARK VINA RESULT:      -5.3      6.298     13.805
REMARK  27 active torsions:
REMARK  status: ('A' for Active; 'I' for Inactive)
REMARK    1  A    between atoms: C1_1  and  O1_2 
REMARK    2  A    between atoms: S1_5  and  N2_7 
REMARK    3  A    between atoms: C2_6  and  N2_7 
REMARK    4  A    between atoms: S2_10  and  O6_22 
REMARK    5  A    between atoms: C3_11  and  O3_12 
REMARK    6  A    between atoms: C4_15  and  O4_16 
REMARK    7  A    between atoms: O4_16  and  C1_24 
REMARK    8  A    between atoms: C5_18  and  C6_21 
REMARK    9  A    between atoms: C6_21  and  O6_22 
REMARK   10  A    between atoms: C2_26  and  O2_27 
REMARK   11  A    between atoms: O2_27  and  S_40 
REMARK   12  A    between atoms: C3_29  and  O3_30 
REMARK   13  A    between atoms: C4_33  and  O4_34 
REMARK   14  A    between atoms: O4_34  and  C1_41 
REMARK   15  A    between atoms: C5_35  and  C6_37 
REMARK   16  A    between atoms: S1_43  and  N2_45 
REMARK   17  A    between atoms: C2_44  and  N2_45 
REMARK   18  A    between atoms: S2_48  and  O6_60 
REMARK   19  A    between atoms: C3_49  and  O3_50 
REMARK   20  A    between atoms: C4_53  and  O4_54 
REMARK   21  A    between atoms: O4_54  and  C1_62 
REMARK   22  A    between atoms: C5_56  and  C6_59 
REMARK   23  A    between atoms: C6_59  and  O6_60 
REMARK   24  A    between atoms: C2_64  and  O2_65 
REMARK   25  A    between atoms: O2_65  and  S_77 
REMARK   26  A    between atoms: C3_67  and  O3_68 
REMARK   27  A    between atoms: C5_72  and  C6_74 
ROOT
HETATM    1  C1  IDS C   2      25.609  82.003  12.255  1.00 40.81     0.294 C 
HETATM    2  C2  IDS C   2      25.649  83.523  12.078  1.00 40.20     0.231 C 
HETATM    3  C3  IDS C   2      24.353  84.038  11.458  1.00 39.01     0.185 C 
HETATM    4  C4  IDS C   2      24.116  83.407  10.071  1.00 37.65     0.195 C 
HETATM    5  C5  IDS C   2      24.921  82.108   9.945  1.00 35.99     0.257 C 
HETATM    6  O5  IDS C   2      24.861  81.374  11.191  1.00 39.00    -0.340 OA
ENDROOT
BRANCH   4   7
HETATM    7  O4  IDS C   2      22.704  83.135   9.891  1.00 35.98    -0.348 OA
BRANCH   7   8
HETATM    8  C1  SGN C   3      21.926  83.114  11.057  1.00 35.40     0.287 C 
HETATM    9  C2  SGN C   3      20.913  81.957  10.997  1.00 33.71     0.182 C 
HETATM   10  C3  SGN C   3      19.770  82.234  10.013  1.00 35.79     0.178 C 
HETATM   11  C4  SGN C   3      19.189  83.647  10.190  1.00 36.62     0.186 C 
HETATM   12  C5  SGN C   3      20.314  84.674  10.233  1.00 39.32     0.181 C 
HETATM   13  O5  SGN C   3      21.250  84.340  11.273  1.00 37.58    -0.349 OA
BRANCH   9  14
HETATM   14  N2  SGN C   3      21.589  80.743  10.595  1.00 29.28    -0.289 N 
ATOM     15  H2  SGN C   3      22.367  80.766   9.936  1.00  0.00     0.175 HD
BRANCH  14  16
HETATM   16  S1  SGN C   3      21.057  79.319  11.242  1.00 27.84     0.205 S 
HETATM   17  O1S SGN C   3      22.269  78.607  11.602  1.00 27.65    -0.578 OA
HETATM   18  O2S SGN C   3      20.299  78.650  10.144  1.00 27.72    -0.578 OA
HETATM   19  O3S SGN C   3      20.190  79.605  12.428  1.00 28.50    -0.578 OA
ENDBRANCH  14  16
ENDBRANCH   9  14
BRANCH  10  20
HETATM   20  O3  SGN C   3      18.745  81.258  10.188  1.00 34.89    -0.391 OA
ATOM     21  H3  SGN C   3      18.574  81.142  11.116  1.00  0.00     0.210 HD
ENDBRANCH  10  20
BRANCH  11  22
HETATM   22  O4  SGN C   3      18.335  83.950   9.073  1.00 37.13    -0.348 OA
BRANCH  22  23
HETATM   23  C1  UAP C   4      17.025  84.267   9.396  1.00 39.64     0.294 C 
HETATM   24  C2  UAP C   4      16.086  83.780   8.307  1.00 38.70     0.228 C 
HETATM   25  C3  UAP C   4      14.656  84.214   8.616  1.00 38.51     0.156 C 
HETATM   26  C4  UAP C   4      14.250  84.057  10.155  1.00 38.14     0.077 C 
HETATM   27  C5  UAP C   4      15.317  83.764  11.016  1.00 38.51     0.228 C 
HETATM   28  O5  UAP C   4      16.707  83.606  10.614  1.00 37.46    -0.343 OA
BRANCH  24  29
HETATM   29  O2  UAP C   4      16.453  84.376   7.022  1.00 40.54    -0.244 OA
BRANCH  29  30
HETATM   30  S   UAP C   4      16.717  83.462   5.734  1.00 40.49     0.252 S 
HETATM   31  O1S UAP C   4      17.116  84.364   4.643  1.00 40.89    -0.572 OA
HETATM   32  O2S UAP C   4      15.452  82.776   5.435  1.00 37.88    -0.572 OA
HETATM   33  O3S UAP C   4      17.789  82.517   6.086  1.00 37.47    -0.572 OA
ENDBRANCH  29  30
ENDBRANCH  24  29
BRANCH  25  34
HETATM   34  O3  UAP C   4      13.760  83.458   7.816  1.00 38.58    -0.393 OA
ATOM     35  H3  UAP C   4      13.094  83.076   8.375  1.00  0.00     0.210 HD
ENDBRANCH  25  34
BRANCH  27  36
HETATM   36  C6  UAP C   4      15.129  83.543  12.477  1.00 37.96     0.203 C 
HETATM   37  O6A UAP C   4      16.070  83.832  13.242  1.00 40.05    -0.646 OA
HETATM   38  O6B UAP C   4      14.038  83.075  12.868  1.00 36.71    -0.646 OA
ENDBRANCH  27  36
ENDBRANCH  22  23
ENDBRANCH  11  22
BRANCH  12  39
HETATM   39  C6  SGN C   3      19.854  86.082  10.487  1.00 42.65     0.227 C 
BRANCH  39  40
HETATM   40  O6  SGN C   3      19.249  86.065  11.798  1.00 51.09    -0.254 OA
BRANCH  40  41
HETATM   41  S2  SGN C   3      19.825  87.111  12.857  1.00 54.80     0.251 S 
HETATM   42  O4S SGN C   3      20.937  87.829  12.209  1.00 54.99    -0.572 OA
HETATM   43  O5S SGN C   3      20.289  86.316  14.033  1.00 53.99    -0.572 OA
HETATM   44  O6S SGN C   3      18.730  88.009  13.202  1.00 55.43    -0.572 OA
ENDBRANCH  40  41
ENDBRANCH  39  40
ENDBRANCH  12  39
ENDBRANCH   7   8
ENDBRANCH   4   7
BRANCH   3  45
HETATM   45  O3  IDS C   2      24.413  85.453  11.341  1.00 39.65    -0.390 OA
ATOM     46  H3  IDS C   2      23.867  85.734  10.617  1.00  0.00     0.210 HD
ENDBRANCH   3  45
BRANCH   5  47
HETATM   47  C6  IDS C   2      24.466  81.175   8.831  1.00 36.10     0.206 C 
HETATM   48  O6A IDS C   2      24.057  80.039   9.158  1.00 32.44    -0.646 OA
HETATM   49  O6B IDS C   2      24.508  81.593   7.649  1.00 33.44    -0.646 OA
ENDBRANCH   5  47
BRANCH   2  50
HETATM   50  O2  IDS C   2      25.820  84.164  13.376  1.00 43.59    -0.244 OA
BRANCH  50  51
HETATM   51  S   IDS C   2      26.997  85.221  13.585  1.00 44.11     0.252 S 
HETATM   52  O1S IDS C   2      27.360  85.184  15.043  1.00 44.48    -0.572 OA
HETATM   53  O2S IDS C   2      26.472  86.541  13.176  1.00 44.29    -0.572 OA
HETATM   54  O3S IDS C   2      28.100  84.796  12.743  1.00 44.74    -0.572 OA
ENDBRANCH  50  51
ENDBRANCH   2  50
BRANCH   1  55
HETATM   55  O4  SGN C   1      26.903  81.501  12.243  1.00 44.73    -0.348 OA
BRANCH  55  56
HETATM   56  C4  SGN C   1      27.394  80.887  13.454  1.00 48.25     0.186 C 
HETATM   57  C3  SGN C   1      26.691  79.542  13.676  1.00 48.43     0.178 C 
HETATM   58  C2  SGN C   1      27.314  78.815  14.867  1.00 48.58     0.181 C 
HETATM   59  C1  SGN C   1      28.829  78.691  14.719  1.00 50.40     0.283 C 
HETATM   60  O5  SGN C   1      29.412  79.984  14.517  1.00 50.82    -0.349 OA
HETATM   61  C5  SGN C   1      28.910  80.653  13.337  1.00 51.58     0.181 C 
BRANCH  57  62
HETATM   62  O3  SGN C   1      25.310  79.754  13.926  1.00 46.09    -0.391 OA
ATOM     63  H3  SGN C   1      25.200  80.567  14.406  1.00  0.00     0.210 HD
ENDBRANCH  57  62
BRANCH  58  64
HETATM   64  N2  SGN C   1      26.730  77.497  15.016  1.00 48.56    -0.289 N 
ATOM     65  H2  SGN C   1      26.786  76.784  14.289  1.00  0.00     0.175 HD
BRANCH  64  66
HETATM   66  S1  SGN C   1      25.965  77.244  16.461  1.00 47.67     0.205 S 
HETATM   67  O1S SGN C   1      24.929  78.293  16.583  1.00 47.59    -0.578 OA
HETATM   68  O2S SGN C   1      27.010  77.367  17.482  1.00 48.55    -0.578 OA
HETATM   69  O3S SGN C   1      25.387  75.884  16.401  1.00 47.08    -0.578 OA
ENDBRANCH  64  66
ENDBRANCH  58  64
BRANCH  59  70
HETATM   70  O1  SGN C   1      29.133  77.892  13.626  1.00 51.36    -0.369 OA
ATOM     71  H1  SGN C   1      28.352  77.439  13.330  1.00  0.00     0.212 HD
ENDBRANCH  59  70
BRANCH  61  72
HETATM   72  C6  SGN C   1      29.689  81.938  13.206  1.00 55.48     0.227 C 
BRANCH  72  73
HETATM   73  O6  SGN C   1      29.981  82.462  14.519  1.00 61.59    -0.254 OA
BRANCH  73  74
HETATM   74  S2  SGN C   1      31.509  82.840  14.772  1.00 65.98     0.251 S 
HETATM   75  O4S SGN C   1      31.682  84.307  14.373  1.00 65.09    -0.572 OA
HETATM   76  O5S SGN C   1      32.298  81.955  13.934  1.00 65.58    -0.572 OA
HETATM   77  O6S SGN C   1      31.794  82.611  16.289  1.00 65.84    -0.572 OA
ENDBRANCH  73  74
ENDBRANCH  72  73
ENDBRANCH  61  72
ENDBRANCH  55  56
ENDBRANCH   1  55
TORSDOF 27
ENDMDL
MODEL 59
REMARK VINA RESULT:      -5.3      6.752     14.156
REMARK  27 active torsions:
REMARK  status: ('A' for Active; 'I' for Inactive)
REMARK    1  A    between atoms: C1_1  and  O1_2 
REMARK    2  A    between atoms: S1_5  and  N2_7 
REMARK    3  A    between atoms: C2_6  and  N2_7 
REMARK    4  A    between atoms: S2_10  and  O6_22 
REMARK    5  A    between atoms: C3_11  and  O3_12 
REMARK    6  A    between atoms: C4_15  and  O4_16 
REMARK    7  A    between atoms: O4_16  and  C1_24 
REMARK    8  A    between atoms: C5_18  and  C6_21 
REMARK    9  A    between atoms: C6_21  and  O6_22 
REMARK   10  A    between atoms: C2_26  and  O2_27 
REMARK   11  A    between atoms: O2_27  and  S_40 
REMARK   12  A    between atoms: C3_29  and  O3_30 
REMARK   13  A    between atoms: C4_33  and  O4_34 
REMARK   14  A    between atoms: O4_34  and  C1_41 
REMARK   15  A    between atoms: C5_35  and  C6_37 
REMARK   16  A    between atoms: S1_43  and  N2_45 
REMARK   17  A    between atoms: C2_44  and  N2_45 
REMARK   18  A    between atoms: S2_48  and  O6_60 
REMARK   19  A    between atoms: C3_49  and  O3_50 
REMARK   20  A    between atoms: C4_53  and  O4_54 
REMARK   21  A    between atoms: O4_54  and  C1_62 
REMARK   22  A    between atoms: C5_56  and  C6_59 
REMARK   23  A    between atoms: C6_59  and  O6_60 
REMARK   24  A    between atoms: C2_64  and  O2_65 
REMARK   25  A    between atoms: O2_65  and  S_77 
REMARK   26  A    between atoms: C3_67  and  O3_68 
REMARK   27  A    between atoms: C5_72  and  C6_74 
ROOT
HETATM    1  C1  IDS C   2      24.691  81.810  11.429  1.00 40.81     0.294 C 
HETATM    2  C2  IDS C   2      24.538  82.079   9.930  1.00 40.20     0.231 C 
HETATM    3  C3  IDS C   2      23.114  82.516   9.593  1.00 39.01     0.185 C 
HETATM    4  C4  IDS C   2      22.095  81.426   9.984  1.00 37.65     0.195 C 
HETATM    5  C5  IDS C   2      22.709  80.492  11.034  1.00 35.99     0.257 C 
HETATM    6  O5  IDS C   2      23.475  81.266  11.988  1.00 39.00    -0.340 OA
ENDROOT
BRANCH   4   7
HETATM    7  O4  IDS C   2      20.894  82.043  10.510  1.00 35.98    -0.348 OA
BRANCH   7   8
HETATM    8  C1  SGN C   3      20.967  83.421  10.759  1.00 35.40     0.287 C 
HETATM    9  C2  SGN C   3      20.514  83.724  12.199  1.00 33.71     0.182 C 
HETATM   10  C3  SGN C   3      18.997  83.580  12.374  1.00 35.79     0.178 C 
HETATM   11  C4  SGN C   3      18.220  84.281  11.247  1.00 36.62     0.186 C 
HETATM   12  C5  SGN C   3      18.789  83.882   9.891  1.00 39.32     0.181 C 
HETATM   13  O5  SGN C   3      20.196  84.174   9.840  1.00 37.58    -0.349 OA
BRANCH   9  14
HETATM   14  N2  SGN C   3      21.175  82.820  13.114  1.00 29.28    -0.289 N 
ATOM     15  H2  SGN C   3      21.071  81.809  13.024  1.00  0.00     0.175 HD
BRANCH  14  16
HETATM   16  S1  SGN C   3      22.104  83.482  14.308  1.00 27.84     0.205 S 
HETATM   17  O1S SGN C   3      23.180  84.153  13.603  1.00 27.65    -0.578 OA
HETATM   18  O2S SGN C   3      22.581  82.325  15.121  1.00 27.72    -0.578 OA
HETATM   19  O3S SGN C   3      21.274  84.431  15.115  1.00 28.50    -0.578 OA
ENDBRANCH  14  16
ENDBRANCH   9  14
BRANCH  10  20
HETATM   20  O3  SGN C   3      18.612  84.113  13.639  1.00 34.89    -0.391 OA
ATOM     21  H3  SGN C   3      18.154  83.447  14.137  1.00  0.00     0.210 HD
ENDBRANCH  10  20
BRANCH  11  22
HETATM   22  O4  SGN C   3      16.840  83.876  11.301  1.00 37.13    -0.348 OA
BRANCH  22  23
HETATM   23  C1  UAP C   4      15.938  84.882  11.613  1.00 39.64     0.294 C 
HETATM   24  C2  UAP C   4      15.123  84.492  12.832  1.00 38.70     0.228 C 
HETATM   25  C3  UAP C   4      14.065  85.555  13.116  1.00 38.51     0.156 C 
HETATM   26  C4  UAP C   4      14.593  87.055  12.950  1.00 38.14     0.077 C 
HETATM   27  C5  UAP C   4      15.861  87.168  12.361  1.00 38.51     0.228 C 
HETATM   28  O5  UAP C   4      16.684  86.056  11.908  1.00 37.46    -0.343 OA
BRANCH  24  29
HETATM   29  O2  UAP C   4      14.419  83.233  12.585  1.00 40.54    -0.244 OA
BRANCH  29  30
HETATM   30  S   UAP C   4      13.160  83.171  11.597  1.00 40.49     0.252 S 
HETATM   31  O1S UAP C   4      13.691  83.199  10.226  1.00 40.89    -0.572 OA
HETATM   32  O2S UAP C   4      12.336  84.354  11.885  1.00 37.88    -0.572 OA
HETATM   33  O3S UAP C   4      12.446  81.917  11.885  1.00 37.47    -0.572 OA
ENDBRANCH  29  30
ENDBRANCH  24  29
BRANCH  25  34
HETATM   34  O3  UAP C   4      13.571  85.375  14.434  1.00 38.58    -0.393 OA
ATOM     35  H3  UAP C   4      13.906  86.071  14.987  1.00  0.00     0.210 HD
ENDBRANCH  25  34
BRANCH  27  36
HETATM   36  C6  UAP C   4      16.536  88.481  12.161  1.00 37.96     0.203 C 
HETATM   37  O6A UAP C   4      16.142  89.209  11.228  1.00 40.05    -0.646 OA
HETATM   38  O6B UAP C   4      17.466  88.791  12.934  1.00 36.71    -0.646 OA
ENDBRANCH  27  36
ENDBRANCH  22  23
ENDBRANCH  11  22
BRANCH  12  39
HETATM   39  C6  SGN C   3      18.150  84.580   8.723  1.00 42.65     0.227 C 
BRANCH  39  40
HETATM   40  O6  SGN C   3      19.031  85.676   8.394  1.00 51.09    -0.254 OA
BRANCH  40  41
HETATM   41  S2  SGN C   3      18.481  87.143   8.700  1.00 54.80     0.251 S 
HETATM   42  O4S SGN C   3      17.011  87.058   8.769  1.00 54.99    -0.572 OA
HETATM   43  O5S SGN C   3      18.934  88.012   7.572  1.00 53.99    -0.572 OA
HETATM   44  O6S SGN C   3      19.058  87.554   9.973  1.00 55.43    -0.572 OA
ENDBRANCH  40  41
ENDBRANCH  39  40
ENDBRANCH  12  39
ENDBRANCH   7   8
ENDBRANCH   4   7
BRANCH   3  45
HETATM   45  O3  IDS C   2      23.019  82.789   8.202  1.00 39.65    -0.390 OA
ATOM     46  H3  IDS C   2      23.354  82.049   7.710  1.00  0.00     0.210 HD
ENDBRANCH   3  45
BRANCH   5  47
HETATM   47  C6  IDS C   2      21.705  79.653  11.813  1.00 36.10     0.206 C 
HETATM   48  O6A IDS C   2      20.998  78.847  11.168  1.00 32.44    -0.646 OA
HETATM   49  O6B IDS C   2      21.647  79.797  13.058  1.00 33.44    -0.646 OA
ENDBRANCH   5  47
BRANCH   2  50
HETATM   50  O2  IDS C   2      25.448  83.143   9.527  1.00 43.59    -0.244 OA
BRANCH  50  51
HETATM   51  S   IDS C   2      26.665  82.812   8.549  1.00 44.11     0.252 S 
HETATM   52  O1S IDS C   2      27.927  83.056   9.328  1.00 44.48    -0.572 OA
HETATM   53  O2S IDS C   2      26.545  83.715   7.385  1.00 44.29    -0.572 OA
HETATM   54  O3S IDS C   2      26.530  81.418   8.165  1.00 44.74    -0.572 OA
ENDBRANCH  50  51
ENDBRANCH   2  50
BRANCH   1  55
HETATM   55  O4  SGN C   1      25.717  80.899  11.633  1.00 44.73    -0.348 OA
BRANCH  55  56
HETATM   56  C4  SGN C   1      26.186  80.710  12.986  1.00 48.25     0.186 C 
HETATM   57  C3  SGN C   1      26.054  79.233  13.379  1.00 48.43     0.178 C 
HETATM   58  C2  SGN C   1      26.690  78.997  14.749  1.00 48.58     0.181 C 
HETATM   59  C1  SGN C   1      28.127  79.513  14.798  1.00 50.40     0.283 C 
HETATM   60  O5  SGN C   1      28.167  80.895  14.421  1.00 50.82    -0.349 OA
HETATM   61  C5  SGN C   1      27.661  81.132  13.087  1.00 51.58     0.181 C 
BRANCH  57  62
HETATM   62  O3  SGN C   1      24.685  78.866  13.428  1.00 46.09    -0.391 OA
ATOM     63  H3  SGN C   1      24.219  79.295  12.720  1.00  0.00     0.210 HD
ENDBRANCH  57  62
BRANCH  58  64
HETATM   64  N2  SGN C   1      26.669  77.586  15.079  1.00 48.56    -0.289 N 
ATOM     65  H2  SGN C   1      27.102  76.876  14.489  1.00  0.00     0.175 HD
BRANCH  64  66
HETATM   66  S1  SGN C   1      25.885  77.222  16.490  1.00 47.67     0.205 S 
HETATM   67  O1S SGN C   1      26.888  77.323  17.572  1.00 47.59    -0.578 OA
HETATM   68  O2S SGN C   1      25.384  75.855  16.316  1.00 48.55    -0.578 OA
HETATM   69  O3S SGN C   1      24.795  78.212  16.636  1.00 47.08    -0.578 OA
ENDBRANCH  64  66
ENDBRANCH  58  64
BRANCH  59  70
HETATM   70  O1  SGN C   1      28.919  78.791  13.918  1.00 51.36    -0.369 OA
ATOM     71  H1  SGN C   1      28.376  78.213  13.394  1.00  0.00     0.212 HD
ENDBRANCH  59  70
BRANCH  61  72
HETATM   72  C6  SGN C   1      27.867  82.599  12.802  1.00 55.48     0.227 C 
BRANCH  72  73
HETATM   73  O6  SGN C   1      29.026  83.073  13.521  1.00 61.59    -0.254 OA
BRANCH  73  74
HETATM   74  S2  SGN C   1      28.729  84.172  14.635  1.00 65.98     0.251 S 
HETATM   75  O4S SGN C   1      29.373  85.478  14.164  1.00 65.09    -0.572 OA
HETATM   76  O5S SGN C   1      29.328  83.688  15.865  1.00 65.58    -0.572 OA
HETATM   77  O6S SGN C   1      27.178  84.298  14.755  1.00 65.84    -0.572 OA
ENDBRANCH  73  74
ENDBRANCH  72  73
ENDBRANCH  61  72
ENDBRANCH  55  56
ENDBRANCH   1  55
TORSDOF 27
ENDMDL
MODEL 60
REMARK VINA RESULT:      -5.3      5.681     13.771
REMARK  27 active torsions:
REMARK  status: ('A' for Active; 'I' for Inactive)
REMARK    1  A    between atoms: C1_1  and  O1_2 
REMARK    2  A    between atoms: S1_5  and  N2_7 
REMARK    3  A    between atoms: C2_6  and  N2_7 
REMARK    4  A    between atoms: S2_10  and  O6_22 
REMARK    5  A    between atoms: C3_11  and  O3_12 
REMARK    6  A    between atoms: C4_15  and  O4_16 
REMARK    7  A    between atoms: O4_16  and  C1_24 
REMARK    8  A    between atoms: C5_18  and  C6_21 
REMARK    9  A    between atoms: C6_21  and  O6_22 
REMARK   10  A    between atoms: C2_26  and  O2_27 
REMARK   11  A    between atoms: O2_27  and  S_40 
REMARK   12  A    between atoms: C3_29  and  O3_30 
REMARK   13  A    between atoms: C4_33  and  O4_34 
REMARK   14  A    between atoms: O4_34  and  C1_41 
REMARK   15  A    between atoms: C5_35  and  C6_37 
REMARK   16  A    between atoms: S1_43  and  N2_45 
REMARK   17  A    between atoms: C2_44  and  N2_45 
REMARK   18  A    between atoms: S2_48  and  O6_60 
REMARK   19  A    between atoms: C3_49  and  O3_50 
REMARK   20  A    between atoms: C4_53  and  O4_54 
REMARK   21  A    between atoms: O4_54  and  C1_62 
REMARK   22  A    between atoms: C5_56  and  C6_59 
REMARK   23  A    between atoms: C6_59  and  O6_60 
REMARK   24  A    between atoms: C2_64  and  O2_65 
REMARK   25  A    between atoms: O2_65  and  S_77 
REMARK   26  A    between atoms: C3_67  and  O3_68 
REMARK   27  A    between atoms: C5_72  and  C6_74 
ROOT
HETATM    1  C1  IDS C   2      26.808  85.497  13.156  1.00 40.81     0.294 C 
HETATM    2  C2  IDS C   2      26.741  86.894  12.533  1.00 40.20     0.231 C 
HETATM    3  C3  IDS C   2      25.347  87.182  11.983  1.00 39.01     0.185 C 
HETATM    4  C4  IDS C   2      24.960  86.161  10.894  1.00 37.65     0.195 C 
HETATM    5  C5  IDS C   2      25.812  84.893  11.043  1.00 35.99     0.257 C 
HETATM    6  O5  IDS C   2      25.960  84.568  12.446  1.00 39.00    -0.340 OA
ENDROOT
BRANCH   4   7
HETATM    7  O4  IDS C   2      23.554  85.830  11.009  1.00 35.98    -0.348 OA
BRANCH   7   8
HETATM    8  C1  SGN C   3      22.920  86.232  12.194  1.00 35.40     0.287 C 
HETATM    9  C2  SGN C   3      21.843  85.208  12.592  1.00 33.71     0.182 C 
HETATM   10  C3  SGN C   3      20.609  85.278  11.685  1.00 35.79     0.178 C 
HETATM   11  C4  SGN C   3      20.135  86.726  11.471  1.00 36.62     0.186 C 
HETATM   12  C5  SGN C   3      21.314  87.611  11.086  1.00 39.32     0.181 C 
HETATM   13  O5  SGN C   3      22.346  87.522  12.084  1.00 37.58    -0.349 OA
BRANCH   9  14
HETATM   14  N2  SGN C   3      22.395  83.873  12.522  1.00 29.28    -0.289 N 
ATOM     15  H2  SGN C   3      22.740  83.490  11.642  1.00  0.00     0.175 HD
BRANCH  14  16
HETATM   16  S1  SGN C   3      22.449  82.992  13.919  1.00 27.84     0.205 S 
HETATM   17  O1S SGN C   3      21.263  83.397  14.650  1.00 27.65    -0.578 OA
HETATM   18  O2S SGN C   3      23.714  83.406  14.595  1.00 27.72    -0.578 OA
HETATM   19  O3S SGN C   3      22.443  81.532  13.587  1.00 28.50    -0.578 OA
ENDBRANCH  14  16
ENDBRANCH   9  14
BRANCH  10  20
HETATM   20  O3  SGN C   3      19.558  84.498  12.250  1.00 34.89    -0.391 OA
ATOM     21  H3  SGN C   3      18.770  85.026  12.313  1.00  0.00     0.210 HD
ENDBRANCH  10  20
BRANCH  11  22
HETATM   22  O4  SGN C   3      19.172  86.755  10.401  1.00 37.13    -0.348 OA
BRANCH  22  23
HETATM   23  C1  UAP C   4      17.857  86.541  10.781  1.00 39.64     0.294 C 
HETATM   24  C2  UAP C   4      16.985  87.694  10.319  1.00 38.70     0.228 C 
HETATM   25  C3  UAP C   4      15.556  87.505  10.822  1.00 38.51     0.156 C 
HETATM   26  C4  UAP C   4      15.024  86.002  10.708  1.00 38.14     0.077 C 
HETATM   27  C5  UAP C   4      16.006  85.055  10.381  1.00 38.51     0.228 C 
HETATM   28  O5  UAP C   4      17.415  85.344  10.155  1.00 37.46    -0.343 OA
BRANCH  24  29
HETATM   29  O2  UAP C   4      17.480  88.954  10.878  1.00 40.54    -0.244 OA
BRANCH  29  30
HETATM   30  S   UAP C   4      17.189  89.352  12.401  1.00 40.49     0.252 S 
HETATM   31  O1S UAP C   4      17.104  90.818  12.452  1.00 40.89    -0.572 OA
HETATM   32  O2S UAP C   4      18.318  88.845  13.194  1.00 37.88    -0.572 OA
HETATM   33  O3S UAP C   4      15.918  88.714  12.779  1.00 37.47    -0.572 OA
ENDBRANCH  29  30
ENDBRANCH  24  29
BRANCH  25  34
HETATM   34  O3  UAP C   4      14.693  88.364  10.093  1.00 38.58    -0.393 OA
ATOM     35  H3  UAP C   4      15.143  88.664   9.312  1.00  0.00     0.210 HD
ENDBRANCH  25  34
BRANCH  27  36
HETATM   36  C6  UAP C   4      15.693  83.611  10.192  1.00 37.96     0.203 C 
HETATM   37  O6A UAP C   4      16.441  82.772  10.732  1.00 40.05    -0.646 OA
HETATM   38  O6B UAP C   4      14.699  83.307   9.500  1.00 36.71    -0.646 OA
ENDBRANCH  27  36
ENDBRANCH  22  23
ENDBRANCH  11  22
BRANCH  12  39
HETATM   39  C6  SGN C   3      20.969  89.067  10.935  1.00 42.65     0.227 C 
BRANCH  39  40
HETATM   40  O6  SGN C   3      21.524  89.469   9.663  1.00 51.09    -0.254 OA
BRANCH  40  41
HETATM   41  S2  SGN C   3      22.826  90.390   9.719  1.00 54.80     0.251 S 
HETATM   42  O4S SGN C   3      22.514  91.640   9.001  1.00 54.99    -0.572 OA
HETATM   43  O5S SGN C   3      23.919  89.624   9.048  1.00 53.99    -0.572 OA
HETATM   44  O6S SGN C   3      23.113  90.633  11.126  1.00 55.43    -0.572 OA
ENDBRANCH  40  41
ENDBRANCH  39  40
ENDBRANCH  12  39
ENDBRANCH   7   8
ENDBRANCH   4   7
BRANCH   3  45
HETATM   45  O3  IDS C   2      25.313  88.497  11.444  1.00 39.65    -0.390 OA
ATOM     46  H3  IDS C   2      24.571  88.968  11.805  1.00  0.00     0.210 HD
ENDBRANCH   3  45
BRANCH   5  47
HETATM   47  C6  IDS C   2      25.263  83.663  10.334  1.00 36.10     0.206 C 
HETATM   48  O6A IDS C   2      24.805  82.740  11.044  1.00 32.44    -0.646 OA
HETATM   49  O6B IDS C   2      25.281  83.640   9.080  1.00 33.44    -0.646 OA
ENDBRANCH   5  47
BRANCH   2  50
HETATM   50  O2  IDS C   2      27.049  87.898  13.544  1.00 43.59    -0.244 OA
BRANCH  50  51
HETATM   51  S   IDS C   2      28.254  88.916  13.302  1.00 44.11     0.252 S 
HETATM   52  O1S IDS C   2      29.512  88.096  13.250  1.00 44.48    -0.572 OA
HETATM   53  O2S IDS C   2      28.254  89.864  14.436  1.00 44.29    -0.572 OA
HETATM   54  O3S IDS C   2      27.993  89.586  12.041  1.00 44.74    -0.572 OA
ENDBRANCH  50  51
ENDBRANCH   2  50
BRANCH   1  55
HETATM   55  O4  SGN C   1      28.114  85.031  13.105  1.00 44.73    -0.348 OA
BRANCH  55  56
HETATM   56  C4  SGN C   1      28.479  83.961  14.006  1.00 48.25     0.186 C 
HETATM   57  C3  SGN C   1      29.458  83.008  13.309  1.00 48.43     0.178 C 
HETATM   58  C2  SGN C   1      29.968  81.964  14.301  1.00 48.58     0.181 C 
HETATM   59  C1  SGN C   1      30.544  82.616  15.557  1.00 50.40     0.283 C 
HETATM   60  O5  SGN C   1      29.573  83.488  16.149  1.00 50.82    -0.349 OA
HETATM   61  C5  SGN C   1      29.147  84.547  15.261  1.00 51.58     0.181 C 
BRANCH  57  62
HETATM   62  O3  SGN C   1      28.810  82.352  12.231  1.00 46.09    -0.391 OA
ATOM     63  H3  SGN C   1      28.947  82.850  11.433  1.00  0.00     0.210 HD
ENDBRANCH  57  62
BRANCH  58  64
HETATM   64  N2  SGN C   1      30.976  81.128  13.682  1.00 48.56    -0.289 N 
ATOM     65  H2  SGN C   1      31.826  81.506  13.266  1.00  0.00     0.175 HD
BRANCH  64  66
HETATM   66  S1  SGN C   1      30.634  79.509  13.703  1.00 47.67     0.205 S 
HETATM   67  O1S SGN C   1      29.266  79.356  13.161  1.00 47.59    -0.578 OA
HETATM   68  O2S SGN C   1      30.727  79.109  15.111  1.00 48.55    -0.578 OA
HETATM   69  O3S SGN C   1      31.653  78.850  12.857  1.00 47.08    -0.578 OA
ENDBRANCH  64  66
ENDBRANCH  58  64
BRANCH  59  70
HETATM   70  O1  SGN C   1      31.667  83.362  15.228  1.00 51.36    -0.369 OA
ATOM     71  H1  SGN C   1      31.473  84.288  15.305  1.00  0.00     0.212 HD
ENDBRANCH  59  70
BRANCH  61  72
HETATM   72  C6  SGN C   1      28.218  85.429  16.057  1.00 55.48     0.227 C 
BRANCH  72  73
HETATM   73  O6  SGN C   1      28.765  86.764  16.129  1.00 61.59    -0.254 OA
BRANCH  73  74
HETATM   74  S2  SGN C   1      28.381  87.582  17.442  1.00 65.98     0.251 S 
HETATM   75  O4S SGN C   1      28.719  86.694  18.642  1.00 65.09    -0.572 OA
HETATM   76  O5S SGN C   1      26.958  87.856  17.357  1.00 65.58    -0.572 OA
HETATM   77  O6S SGN C   1      29.227  88.893  17.431  1.00 65.84    -0.572 OA
ENDBRANCH  73  74
ENDBRANCH  72  73
ENDBRANCH  61  72
ENDBRANCH  55  56
ENDBRANCH   1  55
TORSDOF 27
ENDMDL
MODEL 61
REMARK VINA RESULT:      -5.3      8.528     13.077
REMARK  27 active torsions:
REMARK  status: ('A' for Active; 'I' for Inactive)
REMARK    1  A    between atoms: C1_1  and  O1_2 
REMARK    2  A    between atoms: S1_5  and  N2_7 
REMARK    3  A    between atoms: C2_6  and  N2_7 
REMARK    4  A    between atoms: S2_10  and  O6_22 
REMARK    5  A    between atoms: C3_11  and  O3_12 
REMARK    6  A    between atoms: C4_15  and  O4_16 
REMARK    7  A    between atoms: O4_16  and  C1_24 
REMARK    8  A    between atoms: C5_18  and  C6_21 
REMARK    9  A    between atoms: C6_21  and  O6_22 
REMARK   10  A    between atoms: C2_26  and  O2_27 
REMARK   11  A    between atoms: O2_27  and  S_40 
REMARK   12  A    between atoms: C3_29  and  O3_30 
REMARK   13  A    between atoms: C4_33  and  O4_34 
REMARK   14  A    between atoms: O4_34  and  C1_41 
REMARK   15  A    between atoms: C5_35  and  C6_37 
REMARK   16  A    between atoms: S1_43  and  N2_45 
REMARK   17  A    between atoms: C2_44  and  N2_45 
REMARK   18  A    between atoms: S2_48  and  O6_60 
REMARK   19  A    between atoms: C3_49  and  O3_50 
REMARK   20  A    between atoms: C4_53  and  O4_54 
REMARK   21  A    between atoms: O4_54  and  C1_62 
REMARK   22  A    between atoms: C5_56  and  C6_59 
REMARK   23  A    between atoms: C6_59  and  O6_60 
REMARK   24  A    between atoms: C2_64  and  O2_65 
REMARK   25  A    between atoms: O2_65  and  S_77 
REMARK   26  A    between atoms: C3_67  and  O3_68 
REMARK   27  A    between atoms: C5_72  and  C6_74 
ROOT
HETATM    1  C1  IDS C   2      38.052  73.723  18.487  1.00 40.81     0.294 C 
HETATM    2  C2  IDS C   2      37.960  72.733  17.324  1.00 40.20     0.231 C 
HETATM    3  C3  IDS C   2      37.876  71.296  17.833  1.00 39.01     0.185 C 
HETATM    4  C4  IDS C   2      39.121  70.931  18.666  1.00 37.65     0.195 C 
HETATM    5  C5  IDS C   2      39.800  72.209  19.174  1.00 35.99     0.257 C 
HETATM    6  O5  IDS C   2      38.794  73.163  19.592  1.00 39.00    -0.340 OA
ENDROOT
BRANCH   4   7
HETATM    7  O4  IDS C   2      38.735  70.096  19.786  1.00 35.98    -0.348 OA
BRANCH   7   8
HETATM    8  C1  SGN C   3      37.357  69.964  20.011  1.00 35.40     0.287 C 
HETATM    9  C2  SGN C   3      37.076  69.845  21.519  1.00 33.71     0.182 C 
HETATM   10  C3  SGN C   3      37.490  68.481  22.083  1.00 35.79     0.178 C 
HETATM   11  C4  SGN C   3      37.001  67.321  21.198  1.00 36.62     0.186 C 
HETATM   12  C5  SGN C   3      37.352  67.590  19.741  1.00 39.32     0.181 C 
HETATM   13  O5  SGN C   3      36.806  68.854  19.325  1.00 37.58    -0.349 OA
BRANCH   9  14
HETATM   14  N2  SGN C   3      37.796  70.879  22.228  1.00 29.28    -0.289 N 
ATOM     15  H2  SGN C   3      38.804  70.990  22.118  1.00  0.00     0.175 HD
BRANCH  14  16
HETATM   16  S1  SGN C   3      36.929  71.874  23.221  1.00 27.84     0.205 S 
HETATM   17  O1S SGN C   3      36.411  70.996  24.254  1.00 27.65    -0.578 OA
HETATM   18  O2S SGN C   3      35.853  72.447  22.359  1.00 27.72    -0.578 OA
HETATM   19  O3S SGN C   3      37.830  72.935  23.773  1.00 28.50    -0.578 OA
ENDBRANCH  14  16
ENDBRANCH   9  14
BRANCH  10  20
HETATM   20  O3  SGN C   3      36.978  68.337  23.405  1.00 34.89    -0.391 OA
ATOM     21  H3  SGN C   3      37.587  67.827  23.927  1.00  0.00     0.210 HD
ENDBRANCH  10  20
BRANCH  11  22
HETATM   22  O4  SGN C   3      37.652  66.106  21.609  1.00 37.13    -0.348 OA
BRANCH  22  23
HETATM   23  C1  UAP C   4      36.811  65.116  22.093  1.00 39.64     0.294 C 
HETATM   24  C2  UAP C   4      37.049  64.908  23.578  1.00 38.70     0.228 C 
HETATM   25  C3  UAP C   4      36.193  63.752  24.089  1.00 38.51     0.156 C 
HETATM   26  C4  UAP C   4      34.704  63.743  23.506  1.00 38.14     0.077 C 
HETATM   27  C5  UAP C   4      34.479  64.647  22.458  1.00 38.51     0.228 C 
HETATM   28  O5  UAP C   4      35.472  65.549  21.893  1.00 37.46    -0.343 OA
BRANCH  24  29
HETATM   29  O2  UAP C   4      38.448  64.552  23.818  1.00 40.54    -0.244 OA
BRANCH  29  30
HETATM   30  S   UAP C   4      39.420  65.529  24.634  1.00 40.49     0.252 S 
HETATM   31  O1S UAP C   4      38.660  66.758  24.907  1.00 40.89    -0.572 OA
HETATM   32  O2S UAP C   4      40.581  65.790  23.771  1.00 37.88    -0.572 OA
HETATM   33  O3S UAP C   4      39.797  64.829  25.872  1.00 37.47    -0.572 OA
ENDBRANCH  29  30
ENDBRANCH  24  29
BRANCH  25  34
HETATM   34  O3  UAP C   4      36.141  63.807  25.505  1.00 38.58    -0.393 OA
ATOM     35  H3  UAP C   4      35.232  63.810  25.782  1.00  0.00     0.210 HD
ENDBRANCH  25  34
BRANCH  27  36
HETATM   36  C6  UAP C   4      33.145  64.811  21.815  1.00 37.96     0.203 C 
HETATM   37  O6A UAP C   4      32.673  63.843  21.186  1.00 40.05    -0.646 OA
HETATM   38  O6B UAP C   4      32.562  65.910  21.933  1.00 36.71    -0.646 OA
ENDBRANCH  27  36
ENDBRANCH  22  23
ENDBRANCH  11  22
BRANCH  12  39
HETATM   39  C6  SGN C   3      36.841  66.551  18.781  1.00 42.65     0.227 C 
BRANCH  39  40
HETATM   40  O6  SGN C   3      35.694  67.146  18.136  1.00 51.09    -0.254 OA
BRANCH  40  41
HETATM   41  S2  SGN C   3      34.354  66.279  18.134  1.00 54.80     0.251 S 
HETATM   42  O4S SGN C   3      33.370  66.985  18.974  1.00 54.99    -0.572 OA
HETATM   43  O5S SGN C   3      34.709  64.944  18.700  1.00 53.99    -0.572 OA
HETATM   44  O6S SGN C   3      33.913  66.186  16.748  1.00 55.43    -0.572 OA
ENDBRANCH  40  41
ENDBRANCH  39  40
ENDBRANCH  12  39
ENDBRANCH   7   8
ENDBRANCH   4   7
BRANCH   3  45
HETATM   45  O3  IDS C   2      37.757  70.409  16.729  1.00 39.65    -0.390 OA
ATOM     46  H3  IDS C   2      36.994  69.857  16.847  1.00  0.00     0.210 HD
ENDBRANCH   3  45
BRANCH   5  47
HETATM   47  C6  IDS C   2      40.764  72.007  20.336  1.00 36.10     0.206 C 
HETATM   48  O6A IDS C   2      41.880  71.502  20.083  1.00 32.44    -0.646 OA
HETATM   49  O6B IDS C   2      40.400  72.368  21.481  1.00 33.44    -0.646 OA
ENDBRANCH   5  47
BRANCH   2  50
HETATM   50  O2  IDS C   2      36.764  73.009  16.538  1.00 43.59    -0.244 OA
BRANCH  50  51
HETATM   51  S   IDS C   2      36.905  73.383  14.993  1.00 44.11     0.252 S 
HETATM   52  O1S IDS C   2      38.105  74.279  14.871  1.00 44.48    -0.572 OA
HETATM   53  O2S IDS C   2      35.656  74.068  14.597  1.00 44.29    -0.572 OA
HETATM   54  O3S IDS C   2      37.087  72.136  14.272  1.00 44.74    -0.572 OA
ENDBRANCH  50  51
ENDBRANCH   2  50
BRANCH   1  55
HETATM   55  O4  SGN C   1      38.696  74.877  18.063  1.00 44.73    -0.348 OA
BRANCH  55  56
HETATM   56  C4  SGN C   1      38.399  76.106  18.762  1.00 48.25     0.186 C 
HETATM   57  C3  SGN C   1      39.686  76.683  19.365  1.00 48.43     0.178 C 
HETATM   58  C2  SGN C   1      39.410  78.057  19.972  1.00 48.58     0.181 C 
HETATM   59  C1  SGN C   1      38.739  78.991  18.967  1.00 50.40     0.283 C 
HETATM   60  O5  SGN C   1      37.547  78.385  18.452  1.00 50.82    -0.349 OA
HETATM   61  C5  SGN C   1      37.796  77.127  17.783  1.00 51.58     0.181 C 
BRANCH  57  62
HETATM   62  O3  SGN C   1      40.179  75.815  20.374  1.00 46.09    -0.391 OA
ATOM     63  H3  SGN C   1      39.672  75.938  21.169  1.00  0.00     0.210 HD
ENDBRANCH  57  62
BRANCH  58  64
HETATM   64  N2  SGN C   1      40.641  78.657  20.446  1.00 48.56    -0.289 N 
ATOM     65  H2  SGN C   1      41.548  78.459  20.025  1.00  0.00     0.175 HD
BRANCH  64  66
HETATM   66  S1  SGN C   1      40.455  79.689  21.725  1.00 47.67     0.205 S 
HETATM   67  O1S SGN C   1      41.379  79.226  22.783  1.00 47.59    -0.578 OA
HETATM   68  O2S SGN C   1      39.048  79.573  22.120  1.00 48.55    -0.578 OA
HETATM   69  O3S SGN C   1      40.796  81.042  21.231  1.00 47.08    -0.578 OA
ENDBRANCH  64  66
ENDBRANCH  58  64
BRANCH  59  70
HETATM   70  O1  SGN C   1      39.600  79.244  17.910  1.00 51.36    -0.369 OA
ATOM     71  H1  SGN C   1      39.124  79.207  17.089  1.00  0.00     0.212 HD
ENDBRANCH  59  70
BRANCH  61  72
HETATM   72  C6  SGN C   1      36.476  76.674  17.210  1.00 55.48     0.227 C 
BRANCH  72  73
HETATM   73  O6  SGN C   1      35.480  77.697  17.424  1.00 61.59    -0.254 OA
BRANCH  73  74
HETATM   74  S2  SGN C   1      34.238  77.256  18.320  1.00 65.98     0.251 S 
HETATM   75  O4S SGN C   1      34.110  75.736  18.196  1.00 65.09    -0.572 OA
HETATM   76  O5S SGN C   1      33.077  77.941  17.783  1.00 65.58    -0.572 OA
HETATM   77  O6S SGN C   1      34.548  77.697  19.785  1.00 65.84    -0.572 OA
ENDBRANCH  73  74
ENDBRANCH  72  73
ENDBRANCH  61  72
ENDBRANCH  55  56
ENDBRANCH   1  55
TORSDOF 27
ENDMDL
MODEL 62
REMARK VINA RESULT:      -5.3      5.637     11.350
REMARK  27 active torsions:
REMARK  status: ('A' for Active; 'I' for Inactive)
REMARK    1  A    between atoms: C1_1  and  O1_2 
REMARK    2  A    between atoms: S1_5  and  N2_7 
REMARK    3  A    between atoms: C2_6  and  N2_7 
REMARK    4  A    between atoms: S2_10  and  O6_22 
REMARK    5  A    between atoms: C3_11  and  O3_12 
REMARK    6  A    between atoms: C4_15  and  O4_16 
REMARK    7  A    between atoms: O4_16  and  C1_24 
REMARK    8  A    between atoms: C5_18  and  C6_21 
REMARK    9  A    between atoms: C6_21  and  O6_22 
REMARK   10  A    between atoms: C2_26  and  O2_27 
REMARK   11  A    between atoms: O2_27  and  S_40 
REMARK   12  A    between atoms: C3_29  and  O3_30 
REMARK   13  A    between atoms: C4_33  and  O4_34 
REMARK   14  A    between atoms: O4_34  and  C1_41 
REMARK   15  A    between atoms: C5_35  and  C6_37 
REMARK   16  A    between atoms: S1_43  and  N2_45 
REMARK   17  A    between atoms: C2_44  and  N2_45 
REMARK   18  A    between atoms: S2_48  and  O6_60 
REMARK   19  A    between atoms: C3_49  and  O3_50 
REMARK   20  A    between atoms: C4_53  and  O4_54 
REMARK   21  A    between atoms: O4_54  and  C1_62 
REMARK   22  A    between atoms: C5_56  and  C6_59 
REMARK   23  A    between atoms: C6_59  and  O6_60 
REMARK   24  A    between atoms: C2_64  and  O2_65 
REMARK   25  A    between atoms: O2_65  and  S_77 
REMARK   26  A    between atoms: C3_67  and  O3_68 
REMARK   27  A    between atoms: C5_72  and  C6_74 
ROOT
HETATM    1  C1  IDS C   2      33.159  74.586  18.768  1.00 40.81     0.294 C 
HETATM    2  C2  IDS C   2      33.348  73.167  19.311  1.00 40.20     0.231 C 
HETATM    3  C3  IDS C   2      34.801  72.920  19.706  1.00 39.01     0.185 C 
HETATM    4  C4  IDS C   2      35.740  73.091  18.495  1.00 37.65     0.195 C 
HETATM    5  C5  IDS C   2      35.052  73.941  17.419  1.00 35.99     0.257 C 
HETATM    6  O5  IDS C   2      34.329  75.028  18.045  1.00 39.00    -0.340 OA
ENDROOT
BRANCH   4   7
HETATM    7  O4  IDS C   2      36.974  73.725  18.915  1.00 35.98    -0.348 OA
BRANCH   7   8
HETATM    8  C1  SGN C   3      38.102  72.895  18.983  1.00 35.40     0.287 C 
HETATM    9  C2  SGN C   3      38.914  73.208  20.253  1.00 33.71     0.182 C 
HETATM   10  C3  SGN C   3      39.666  74.540  20.149  1.00 35.79     0.178 C 
HETATM   11  C4  SGN C   3      40.406  74.679  18.808  1.00 36.62     0.186 C 
HETATM   12  C5  SGN C   3      39.472  74.335  17.656  1.00 39.32     0.181 C 
HETATM   13  O5  SGN C   3      38.926  73.016  17.838  1.00 37.58    -0.349 OA
BRANCH   9  14
HETATM   14  N2  SGN C   3      38.026  73.263  21.393  1.00 29.28    -0.289 N 
ATOM     15  H2  SGN C   3      37.431  74.074  21.560  1.00  0.00     0.175 HD
BRANCH  14  16
HETATM   16  S1  SGN C   3      38.011  71.965  22.415  1.00 27.84     0.205 S 
HETATM   17  O1S SGN C   3      37.237  72.411  23.559  1.00 27.65    -0.578 OA
HETATM   18  O2S SGN C   3      39.443  71.714  22.750  1.00 27.72    -0.578 OA
HETATM   19  O3S SGN C   3      37.383  70.795  21.724  1.00 28.50    -0.578 OA
ENDBRANCH  14  16
ENDBRANCH   9  14
BRANCH  10  20
HETATM   20  O3  SGN C   3      40.588  74.651  21.231  1.00 34.89    -0.391 OA
ATOM     21  H3  SGN C   3      41.476  74.640  20.892  1.00  0.00     0.210 HD
ENDBRANCH  10  20
BRANCH  11  22
HETATM   22  O4  SGN C   3      40.846  76.040  18.649  1.00 37.13    -0.348 OA
BRANCH  22  23
HETATM   23  C1  UAP C   4      42.219  76.226  18.662  1.00 39.64     0.294 C 
HETATM   24  C2  UAP C   4      42.618  77.089  19.846  1.00 38.70     0.228 C 
HETATM   25  C3  UAP C   4      44.117  77.373  19.804  1.00 38.51     0.156 C 
HETATM   26  C4  UAP C   4      45.005  76.107  19.399  1.00 38.14     0.077 C 
HETATM   27  C5  UAP C   4      44.276  75.005  18.931  1.00 38.51     0.228 C 
HETATM   28  O5  UAP C   4      42.828  74.948  18.793  1.00 37.46    -0.343 OA
BRANCH  24  29
HETATM   29  O2  UAP C   4      41.929  78.379  19.783  1.00 40.54    -0.244 OA
BRANCH  29  30
HETATM   30  S   UAP C   4      41.154  78.962  21.057  1.00 40.49     0.252 S 
HETATM   31  O1S UAP C   4      40.095  79.845  20.546  1.00 40.89    -0.572 OA
HETATM   32  O2S UAP C   4      42.142  79.705  21.852  1.00 37.88    -0.572 OA
HETATM   33  O3S UAP C   4      40.604  77.813  21.793  1.00 37.47    -0.572 OA
ENDBRANCH  29  30
ENDBRANCH  24  29
BRANCH  25  34
HETATM   34  O3  UAP C   4      44.532  77.849  21.075  1.00 38.58    -0.393 OA
ATOM     35  H3  UAP C   4      45.473  77.981  21.064  1.00  0.00     0.210 HD
ENDBRANCH  25  34
BRANCH  27  36
HETATM   36  C6  UAP C   4      44.925  73.722  18.544  1.00 37.96     0.203 C 
HETATM   37  O6A UAP C   4      46.141  73.580  18.786  1.00 40.05    -0.646 OA
HETATM   38  O6B UAP C   4      44.224  72.847  17.993  1.00 36.71    -0.646 OA
ENDBRANCH  27  36
ENDBRANCH  22  23
ENDBRANCH  11  22
BRANCH  12  39
HETATM   39  C6  SGN C   3      40.125  74.359  16.302  1.00 42.65     0.227 C 
BRANCH  39  40
HETATM   40  O6  SGN C   3      41.253  73.462  16.396  1.00 51.09    -0.254 OA
BRANCH  40  41
HETATM   41  S2  SGN C   3      41.383  72.365  15.245  1.00 54.80     0.251 S 
HETATM   42  O4S SGN C   3      40.816  71.108  15.766  1.00 54.99    -0.572 OA
HETATM   43  O5S SGN C   3      42.839  72.233  14.944  1.00 53.99    -0.572 OA
HETATM   44  O6S SGN C   3      40.631  72.862  14.100  1.00 55.43    -0.572 OA
ENDBRANCH  40  41
ENDBRANCH  39  40
ENDBRANCH  12  39
ENDBRANCH   7   8
ENDBRANCH   4   7
BRANCH   3  45
HETATM   45  O3  IDS C   2      34.932  71.608  20.236  1.00 39.65    -0.390 OA
ATOM     46  H3  IDS C   2      35.254  71.657  21.128  1.00  0.00     0.210 HD
ENDBRANCH   3  45
BRANCH   5  47
HETATM   47  C6  IDS C   2      35.988  74.542  16.379  1.00 36.10     0.206 C 
HETATM   48  O6A IDS C   2      36.541  73.759  15.574  1.00 32.44    -0.646 OA
HETATM   49  O6B IDS C   2      36.147  75.786  16.368  1.00 33.44    -0.646 OA
ENDBRANCH   5  47
BRANCH   2  50
HETATM   50  O2  IDS C   2      32.516  72.979  20.493  1.00 43.59    -0.244 OA
BRANCH  50  51
HETATM   51  S   IDS C   2      31.524  71.731  20.568  1.00 44.11     0.252 S 
HETATM   52  O1S IDS C   2      30.443  72.094  21.546  1.00 44.48    -0.572 OA
HETATM   53  O2S IDS C   2      32.320  70.571  21.023  1.00 44.29    -0.572 OA
HETATM   54  O3S IDS C   2      30.997  71.531  19.230  1.00 44.74    -0.572 OA
ENDBRANCH  50  51
ENDBRANCH   2  50
BRANCH   1  55
HETATM   55  O4  SGN C   1      32.072  74.611  17.907  1.00 44.73    -0.348 OA
BRANCH  55  56
HETATM   56  C4  SGN C   1      31.390  75.872  17.725  1.00 48.25     0.186 C 
HETATM   57  C3  SGN C   1      31.093  76.090  16.236  1.00 48.43     0.178 C 
HETATM   58  C2  SGN C   1      30.238  77.343  16.050  1.00 48.58     0.181 C 
HETATM   59  C1  SGN C   1      28.983  77.300  16.921  1.00 50.40     0.283 C 
HETATM   60  O5  SGN C   1      29.342  77.096  18.293  1.00 50.82    -0.349 OA
HETATM   61  C5  SGN C   1      30.068  75.864  18.510  1.00 51.58     0.181 C 
BRANCH  57  62
HETATM   62  O3  SGN C   1      32.307  76.241  15.518  1.00 46.09    -0.391 OA
ATOM     63  H3  SGN C   1      32.632  75.384  15.267  1.00  0.00     0.210 HD
ENDBRANCH  57  62
BRANCH  58  64
HETATM   64  N2  SGN C   1      29.861  77.496  14.660  1.00 48.56    -0.289 N 
ATOM     65  H2  SGN C   1      29.207  76.867  14.194  1.00  0.00     0.175 HD
BRANCH  64  66
HETATM   66  S1  SGN C   1      30.576  78.774  13.890  1.00 47.67     0.205 S 
HETATM   67  O1S SGN C   1      30.817  79.809  14.919  1.00 47.59    -0.578 OA
HETATM   68  O2S SGN C   1      29.611  79.206  12.874  1.00 48.55    -0.578 OA
HETATM   69  O3S SGN C   1      31.832  78.262  13.299  1.00 47.08    -0.578 OA
ENDBRANCH  64  66
ENDBRANCH  58  64
BRANCH  59  70
HETATM   70  O1  SGN C   1      28.164  76.257  16.517  1.00 51.36    -0.369 OA
ATOM     71  H1  SGN C   1      27.506  76.579  15.912  1.00  0.00     0.212 HD
ENDBRANCH  59  70
BRANCH  61  72
HETATM   72  C6  SGN C   1      30.276  75.743  19.999  1.00 55.48     0.227 C 
BRANCH  72  73
HETATM   73  O6  SGN C   1      29.502  76.754  20.679  1.00 61.59    -0.254 OA
BRANCH  73  74
HETATM   74  S2  SGN C   1      28.247  76.210  21.497  1.00 65.98     0.251 S 
HETATM   75  O4S SGN C   1      28.194  74.695  21.285  1.00 65.09    -0.572 OA
HETATM   76  O5S SGN C   1      27.078  76.873  20.950  1.00 65.58    -0.572 OA
HETATM   77  O6S SGN C   1      28.478  76.581  22.995  1.00 65.84    -0.572 OA
ENDBRANCH  73  74
ENDBRANCH  72  73
ENDBRANCH  61  72
ENDBRANCH  55  56
ENDBRANCH   1  55
TORSDOF 27
ENDMDL
MODEL 63
REMARK VINA RESULT:      -5.3      5.251     12.168
REMARK  27 active torsions:
REMARK  status: ('A' for Active; 'I' for Inactive)
REMARK    1  A    between atoms: C1_1  and  O1_2 
REMARK    2  A    between atoms: S1_5  and  N2_7 
REMARK    3  A    between atoms: C2_6  and  N2_7 
REMARK    4  A    between atoms: S2_10  and  O6_22 
REMARK    5  A    between atoms: C3_11  and  O3_12 
REMARK    6  A    between atoms: C4_15  and  O4_16 
REMARK    7  A    between atoms: O4_16  and  C1_24 
REMARK    8  A    between atoms: C5_18  and  C6_21 
REMARK    9  A    between atoms: C6_21  and  O6_22 
REMARK   10  A    between atoms: C2_26  and  O2_27 
REMARK   11  A    between atoms: O2_27  and  S_40 
REMARK   12  A    between atoms: C3_29  and  O3_30 
REMARK   13  A    between atoms: C4_33  and  O4_34 
REMARK   14  A    between atoms: O4_34  and  C1_41 
REMARK   15  A    between atoms: C5_35  and  C6_37 
REMARK   16  A    between atoms: S1_43  and  N2_45 
REMARK   17  A    between atoms: C2_44  and  N2_45 
REMARK   18  A    between atoms: S2_48  and  O6_60 
REMARK   19  A    between atoms: C3_49  and  O3_50 
REMARK   20  A    between atoms: C4_53  and  O4_54 
REMARK   21  A    between atoms: O4_54  and  C1_62 
REMARK   22  A    between atoms: C5_56  and  C6_59 
REMARK   23  A    between atoms: C6_59  and  O6_60 
REMARK   24  A    between atoms: C2_64  and  O2_65 
REMARK   25  A    between atoms: O2_65  and  S_77 
REMARK   26  A    between atoms: C3_67  and  O3_68 
REMARK   27  A    between atoms: C5_72  and  C6_74 
ROOT
HETATM    1  C1  IDS C   2      26.758  84.900  12.536  1.00 40.81     0.294 C 
HETATM    2  C2  IDS C   2      26.484  86.197  11.770  1.00 40.20     0.231 C 
HETATM    3  C3  IDS C   2      25.334  86.019  10.783  1.00 39.01     0.185 C 
HETATM    4  C4  IDS C   2      25.657  84.920   9.751  1.00 37.65     0.195 C 
HETATM    5  C5  IDS C   2      26.751  83.995  10.300  1.00 35.99     0.257 C 
HETATM    6  O5  IDS C   2      26.515  83.743  11.706  1.00 39.00    -0.340 OA
ENDROOT
BRANCH   4   7
HETATM    7  O4  IDS C   2      24.462  84.155   9.456  1.00 35.98    -0.348 OA
BRANCH   7   8
HETATM    8  C1  SGN C   3      23.856  84.410   8.217  1.00 35.40     0.287 C 
HETATM    9  C2  SGN C   3      22.326  84.456   8.376  1.00 33.71     0.182 C 
HETATM   10  C3  SGN C   3      21.722  83.064   8.598  1.00 35.79     0.178 C 
HETATM   11  C4  SGN C   3      22.280  82.030   7.606  1.00 36.62     0.186 C 
HETATM   12  C5  SGN C   3      23.800  82.112   7.563  1.00 39.32     0.181 C 
HETATM   13  O5  SGN C   3      24.214  83.451   7.238  1.00 37.58    -0.349 OA
BRANCH   9  14
HETATM   14  N2  SGN C   3      21.981  85.298   9.500  1.00 29.28    -0.289 N 
ATOM     15  H2  SGN C   3      22.146  84.992  10.458  1.00  0.00     0.175 HD
BRANCH  14  16
HETATM   16  S1  SGN C   3      21.311  86.772   9.175  1.00 27.84     0.205 S 
HETATM   17  O1S SGN C   3      21.362  86.885   7.729  1.00 27.65    -0.578 OA
HETATM   18  O2S SGN C   3      22.192  87.763   9.862  1.00 27.72    -0.578 OA
HETATM   19  O3S SGN C   3      19.911  86.809   9.701  1.00 28.50    -0.578 OA
ENDBRANCH  14  16
ENDBRANCH   9  14
BRANCH  10  20
HETATM   20  O3  SGN C   3      20.303  83.138   8.482  1.00 34.89    -0.391 OA
ATOM     21  H3  SGN C   3      19.904  82.489   9.050  1.00  0.00     0.210 HD
ENDBRANCH  10  20
BRANCH  11  22
HETATM   22  O4  SGN C   3      21.905  80.710   8.038  1.00 37.13    -0.348 OA
BRANCH  22  23
HETATM   23  C1  UAP C   4      20.730  80.217   7.492  1.00 39.64     0.294 C 
HETATM   24  C2  UAP C   4      19.610  80.284   8.514  1.00 38.70     0.228 C 
HETATM   25  C3  UAP C   4      18.343  79.652   7.945  1.00 38.51     0.156 C 
HETATM   26  C4  UAP C   4      18.059  80.034   6.418  1.00 38.14     0.077 C 
HETATM   27  C5  UAP C   4      19.114  80.696   5.773  1.00 38.51     0.228 C 
HETATM   28  O5  UAP C   4      20.394  81.036   6.379  1.00 37.46    -0.343 OA
BRANCH  24  29
HETATM   29  O2  UAP C   4      19.976  79.523   9.711  1.00 40.54    -0.244 OA
BRANCH  29  30
HETATM   30  S   UAP C   4      20.429  80.267  11.054  1.00 40.49     0.252 S 
HETATM   31  O1S UAP C   4      21.890  80.417  10.987  1.00 40.89    -0.572 OA
HETATM   32  O2S UAP C   4      20.023  79.405  12.174  1.00 37.88    -0.572 OA
HETATM   33  O3S UAP C   4      19.743  81.568  11.081  1.00 37.47    -0.572 OA
ENDBRANCH  29  30
ENDBRANCH  24  29
BRANCH  25  34
HETATM   34  O3  UAP C   4      17.235  80.044   8.740  1.00 38.58    -0.393 OA
ATOM     35  H3  UAP C   4      16.777  80.753   8.304  1.00  0.00     0.210 HD
ENDBRANCH  25  34
BRANCH  27  36
HETATM   36  C6  UAP C   4      19.020  81.167   4.363  1.00 37.96     0.203 C 
HETATM   37  O6A UAP C   4      19.348  80.376   3.456  1.00 40.05    -0.646 OA
HETATM   38  O6B UAP C   4      18.621  82.332   4.154  1.00 36.71    -0.646 OA
ENDBRANCH  27  36
ENDBRANCH  22  23
ENDBRANCH  11  22
BRANCH  12  39
HETATM   39  C6  SGN C   3      24.440  81.196   6.557  1.00 42.65     0.227 C 
BRANCH  39  40
HETATM   40  O6  SGN C   3      25.203  80.243   7.328  1.00 51.09    -0.254 OA
BRANCH  40  41
HETATM   41  S2  SGN C   3      26.195  79.300   6.507  1.00 54.80     0.251 S 
HETATM   42  O4S SGN C   3      26.512  78.141   7.361  1.00 54.99    -0.572 OA
HETATM   43  O5S SGN C   3      27.409  80.116   6.207  1.00 53.99    -0.572 OA
HETATM   44  O6S SGN C   3      25.491  78.901   5.295  1.00 55.43    -0.572 OA
ENDBRANCH  40  41
ENDBRANCH  39  40
ENDBRANCH  12  39
ENDBRANCH   7   8
ENDBRANCH   4   7
BRANCH   3  45
HETATM   45  O3  IDS C   2      25.086  87.249  10.117  1.00 39.65    -0.390 OA
ATOM     46  H3  IDS C   2      25.382  87.969  10.660  1.00  0.00     0.210 HD
ENDBRANCH   3  45
BRANCH   5  47
HETATM   47  C6  IDS C   2      26.866  82.648   9.598  1.00 36.10     0.206 C 
HETATM   48  O6A IDS C   2      26.585  81.624  10.258  1.00 32.44    -0.646 OA
HETATM   49  O6B IDS C   2      27.220  82.632   8.395  1.00 33.44    -0.646 OA
ENDBRANCH   5  47
BRANCH   2  50
HETATM   50  O2  IDS C   2      26.121  87.253  12.707  1.00 43.59    -0.244 OA
BRANCH  50  51
HETATM   51  S   IDS C   2      27.004  88.581  12.780  1.00 44.11     0.252 S 
HETATM   52  O1S IDS C   2      27.058  88.988  14.225  1.00 44.48    -0.572 OA
HETATM   53  O2S IDS C   2      26.332  89.595  11.940  1.00 44.29    -0.572 OA
HETATM   54  O3S IDS C   2      28.318  88.241  12.265  1.00 44.74    -0.572 OA
ENDBRANCH  50  51
ENDBRANCH   2  50
BRANCH   1  55
HETATM   55  O4  SGN C   1      28.082  84.878  12.949  1.00 44.73    -0.348 OA
BRANCH  55  56
HETATM   56  C4  SGN C   1      28.456  83.904  13.948  1.00 48.25     0.186 C 
HETATM   57  C3  SGN C   1      29.533  82.969  13.383  1.00 48.43     0.178 C 
HETATM   58  C2  SGN C   1      30.045  82.036  14.480  1.00 48.58     0.181 C 
HETATM   59  C1  SGN C   1      30.502  82.815  15.712  1.00 50.40     0.283 C 
HETATM   60  O5  SGN C   1      29.444  83.661  16.180  1.00 50.82    -0.349 OA
HETATM   61  C5  SGN C   1      29.009  84.622  15.191  1.00 51.58     0.181 C 
BRANCH  57  62
HETATM   62  O3  SGN C   1      28.994  82.195  12.324  1.00 46.09    -0.391 OA
ATOM     63  H3  SGN C   1      28.566  82.771  11.700  1.00  0.00     0.210 HD
ENDBRANCH  57  62
BRANCH  58  64
HETATM   64  N2  SGN C   1      31.138  81.225  13.984  1.00 48.56    -0.289 N 
ATOM     65  H2  SGN C   1      32.021  81.625  13.666  1.00  0.00     0.175 HD
BRANCH  64  66
HETATM   66  S1  SGN C   1      30.838  79.598  13.976  1.00 47.67     0.205 S 
HETATM   67  O1S SGN C   1      29.834  79.356  12.917  1.00 47.59    -0.578 OA
HETATM   68  O2S SGN C   1      30.326  79.288  15.314  1.00 48.55    -0.578 OA
HETATM   69  O3S SGN C   1      32.128  78.931  13.693  1.00 47.08    -0.578 OA
ENDBRANCH  64  66
ENDBRANCH  58  64
BRANCH  59  70
HETATM   70  O1  SGN C   1      31.594  83.607  15.391  1.00 51.36    -0.369 OA
ATOM     71  H1  SGN C   1      32.396  83.107  15.490  1.00  0.00     0.212 HD
ENDBRANCH  59  70
BRANCH  61  72
HETATM   72  C6  SGN C   1      27.981  85.497  15.862  1.00 55.48     0.227 C 
BRANCH  72  73
HETATM   73  O6  SGN C   1      28.381  85.753  17.226  1.00 61.59    -0.254 OA
BRANCH  73  74
HETATM   74  S2  SGN C   1      28.319  87.281  17.674  1.00 65.98     0.251 S 
HETATM   75  O4S SGN C   1      28.609  87.323  19.176  1.00 65.09    -0.572 OA
HETATM   76  O5S SGN C   1      26.978  87.747  17.369  1.00 65.58    -0.572 OA
HETATM   77  O6S SGN C   1      29.401  88.047  16.850  1.00 65.84    -0.572 OA
ENDBRANCH  73  74
ENDBRANCH  72  73
ENDBRANCH  61  72
ENDBRANCH  55  56
ENDBRANCH   1  55
TORSDOF 27
ENDMDL
MODEL 64
REMARK VINA RESULT:      -5.3      5.261     12.521
REMARK  27 active torsions:
REMARK  status: ('A' for Active; 'I' for Inactive)
REMARK    1  A    between atoms: C1_1  and  O1_2 
REMARK    2  A    between atoms: S1_5  and  N2_7 
REMARK    3  A    between atoms: C2_6  and  N2_7 
REMARK    4  A    between atoms: S2_10  and  O6_22 
REMARK    5  A    between atoms: C3_11  and  O3_12 
REMARK    6  A    between atoms: C4_15  and  O4_16 
REMARK    7  A    between atoms: O4_16  and  C1_24 
REMARK    8  A    between atoms: C5_18  and  C6_21 
REMARK    9  A    between atoms: C6_21  and  O6_22 
REMARK   10  A    between atoms: C2_26  and  O2_27 
REMARK   11  A    between atoms: O2_27  and  S_40 
REMARK   12  A    between atoms: C3_29  and  O3_30 
REMARK   13  A    between atoms: C4_33  and  O4_34 
REMARK   14  A    between atoms: O4_34  and  C1_41 
REMARK   15  A    between atoms: C5_35  and  C6_37 
REMARK   16  A    between atoms: S1_43  and  N2_45 
REMARK   17  A    between atoms: C2_44  and  N2_45 
REMARK   18  A    between atoms: S2_48  and  O6_60 
REMARK   19  A    between atoms: C3_49  and  O3_50 
REMARK   20  A    between atoms: C4_53  and  O4_54 
REMARK   21  A    between atoms: O4_54  and  C1_62 
REMARK   22  A    between atoms: C5_56  and  C6_59 
REMARK   23  A    between atoms: C6_59  and  O6_60 
REMARK   24  A    between atoms: C2_64  and  O2_65 
REMARK   25  A    between atoms: O2_65  and  S_77 
REMARK   26  A    between atoms: C3_67  and  O3_68 
REMARK   27  A    between atoms: C5_72  and  C6_74 
ROOT
HETATM    1  C1  IDS C   2      27.243  85.128  12.536  1.00 40.81     0.294 C 
HETATM    2  C2  IDS C   2      27.205  85.881  11.204  1.00 40.20     0.231 C 
HETATM    3  C3  IDS C   2      25.799  85.874  10.610  1.00 39.01     0.185 C 
HETATM    4  C4  IDS C   2      25.315  84.433  10.353  1.00 37.65     0.195 C 
HETATM    5  C5  IDS C   2      26.117  83.451  11.216  1.00 35.99     0.257 C 
HETATM    6  O5  IDS C   2      26.320  84.016  12.534  1.00 39.00    -0.340 OA
ENDROOT
BRANCH   4   7
HETATM    7  O4  IDS C   2      23.902  84.327  10.662  1.00 35.98    -0.348 OA
BRANCH   7   8
HETATM    8  C1  SGN C   3      23.019  84.563   9.599  1.00 35.40     0.287 C 
HETATM    9  C2  SGN C   3      21.996  85.645   9.990  1.00 33.71     0.182 C 
HETATM   10  C3  SGN C   3      20.955  85.127  10.990  1.00 35.79     0.178 C 
HETATM   11  C4  SGN C   3      20.384  83.762  10.570  1.00 36.62     0.186 C 
HETATM   12  C5  SGN C   3      21.518  82.808  10.213  1.00 39.32     0.181 C 
HETATM   13  O5  SGN C   3      22.347  83.386   9.189  1.00 37.58    -0.349 OA
BRANCH   9  14
HETATM   14  N2  SGN C   3      22.686  86.771  10.578  1.00 29.28    -0.289 N 
ATOM     15  H2  SGN C   3      23.255  86.662  11.418  1.00  0.00     0.175 HD
BRANCH  14  16
HETATM   16  S1  SGN C   3      22.520  88.241   9.843  1.00 27.84     0.205 S 
HETATM   17  O1S SGN C   3      22.705  89.206  10.910  1.00 27.65    -0.578 OA
HETATM   18  O2S SGN C   3      21.132  88.248   9.292  1.00 27.72    -0.578 OA
HETATM   19  O3S SGN C   3      23.551  88.378   8.766  1.00 28.50    -0.578 OA
ENDBRANCH  14  16
ENDBRANCH   9  14
BRANCH  10  20
HETATM   20  O3  SGN C   3      19.902  86.080  11.115  1.00 34.89    -0.391 OA
ATOM     21  H3  SGN C   3      19.159  85.675  11.547  1.00  0.00     0.210 HD
ENDBRANCH  10  20
BRANCH  11  22
HETATM   22  O4  SGN C   3      19.643  83.201  11.669  1.00 37.13    -0.348 OA
BRANCH  22  23
HETATM   23  C1  UAP C   4      18.273  83.406  11.626  1.00 39.64     0.294 C 
HETATM   24  C2  UAP C   4      17.850  84.345  12.741  1.00 38.70     0.228 C 
HETATM   25  C3  UAP C   4      16.331  84.492  12.753  1.00 38.51     0.156 C 
HETATM   26  C4  UAP C   4      15.682  84.631  11.299  1.00 38.14     0.077 C 
HETATM   27  C5  UAP C   4      16.562  84.374  10.237  1.00 38.51     0.228 C 
HETATM   28  O5  UAP C   4      17.963  84.002  10.373  1.00 37.46    -0.343 OA
BRANCH  24  29
HETATM   29  O2  UAP C   4      18.245  83.795  14.039  1.00 40.54    -0.244 OA
BRANCH  29  30
HETATM   30  S   UAP C   4      19.505  84.379  14.834  1.00 40.49     0.252 S 
HETATM   31  O1S UAP C   4      19.803  85.697  14.255  1.00 40.89    -0.572 OA
HETATM   32  O2S UAP C   4      20.612  83.434  14.629  1.00 37.88    -0.572 OA
HETATM   33  O3S UAP C   4      19.116  84.476  16.250  1.00 37.47    -0.572 OA
ENDBRANCH  29  30
ENDBRANCH  24  29
BRANCH  25  34
HETATM   34  O3  UAP C   4      15.984  85.627  13.531  1.00 38.58    -0.393 OA
ATOM     35  H3  UAP C   4      16.661  85.775  14.181  1.00  0.00     0.210 HD
ENDBRANCH  25  34
BRANCH  27  36
HETATM   36  C6  UAP C   4      16.151  84.492   8.811  1.00 37.96     0.203 C 
HETATM   37  O6A UAP C   4      15.012  84.935   8.561  1.00 40.05    -0.646 OA
HETATM   38  O6B UAP C   4      16.964  84.141   7.930  1.00 36.71    -0.646 OA
ENDBRANCH  27  36
ENDBRANCH  22  23
ENDBRANCH  11  22
BRANCH  12  39
HETATM   39  C6  SGN C   3      21.061  81.468   9.708  1.00 42.65     0.227 C 
BRANCH  39  40
HETATM   40  O6  SGN C   3      22.217  80.607   9.785  1.00 51.09    -0.254 OA
BRANCH  40  41
HETATM   41  S2  SGN C   3      22.053  79.275  10.649  1.00 54.80     0.251 S 
HETATM   42  O4S SGN C   3      22.885  78.234  10.018  1.00 54.99    -0.572 OA
HETATM   43  O5S SGN C   3      20.602  78.921  10.615  1.00 53.99    -0.572 OA
HETATM   44  O6S SGN C   3      22.508  79.587  11.997  1.00 55.43    -0.572 OA
ENDBRANCH  40  41
ENDBRANCH  39  40
ENDBRANCH  12  39
ENDBRANCH   7   8
ENDBRANCH   4   7
BRANCH   3  45
HETATM   45  O3  IDS C   2      25.795  86.609   9.394  1.00 39.65    -0.390 OA
ATOM     46  H3  IDS C   2      25.189  87.337   9.466  1.00  0.00     0.210 HD
ENDBRANCH   3  45
BRANCH   5  47
HETATM   47  C6  IDS C   2      25.480  82.079  11.390  1.00 36.10     0.206 C 
HETATM   48  O6A IDS C   2      24.983  81.807  12.505  1.00 32.44    -0.646 OA
HETATM   49  O6B IDS C   2      25.470  81.299  10.408  1.00 33.44    -0.646 OA
ENDBRANCH   5  47
BRANCH   2  50
HETATM   50  O2  IDS C   2      27.606  87.266  11.411  1.00 43.59    -0.244 OA
BRANCH  50  51
HETATM   51  S   IDS C   2      28.965  87.799  10.766  1.00 44.11     0.252 S 
HETATM   52  O1S IDS C   2      29.694  88.548  11.846  1.00 44.48    -0.572 OA
HETATM   53  O2S IDS C   2      28.594  88.674   9.634  1.00 44.29    -0.572 OA
HETATM   54  O3S IDS C   2      29.707  86.632  10.323  1.00 44.74    -0.572 OA
ENDBRANCH  50  51
ENDBRANCH   2  50
BRANCH   1  55
HETATM   55  O4  SGN C   1      28.523  84.640  12.756  1.00 44.73    -0.348 OA
BRANCH  55  56
HETATM   56  C4  SGN C   1      28.709  83.714  13.850  1.00 48.25     0.186 C 
HETATM   57  C3  SGN C   1      29.695  82.615  13.437  1.00 48.43     0.178 C 
HETATM   58  C2  SGN C   1      30.016  81.722  14.635  1.00 48.58     0.181 C 
HETATM   59  C1  SGN C   1      30.486  82.542  15.836  1.00 50.40     0.283 C 
HETATM   60  O5  SGN C   1      29.514  83.543  16.161  1.00 50.82    -0.349 OA
HETATM   61  C5  SGN C   1      29.266  84.463  15.072  1.00 51.58     0.181 C 
BRANCH  57  62
HETATM   62  O3  SGN C   1      29.133  81.825  12.402  1.00 46.09    -0.391 OA
ATOM     63  H3  SGN C   1      29.779  81.700  11.716  1.00  0.00     0.210 HD
ENDBRANCH  57  62
BRANCH  58  64
HETATM   64  N2  SGN C   1      31.030  80.749  14.283  1.00 48.56    -0.289 N 
ATOM     65  H2  SGN C   1      31.945  81.014  13.919  1.00  0.00     0.175 HD
BRANCH  64  66
HETATM   66  S1  SGN C   1      30.583  79.174  14.520  1.00 47.67     0.205 S 
HETATM   67  O1S SGN C   1      31.740  78.340  14.127  1.00 47.59    -0.578 OA
HETATM   68  O2S SGN C   1      29.420  78.964  13.651  1.00 48.55    -0.578 OA
HETATM   69  O3S SGN C   1      30.251  79.039  15.955  1.00 47.08    -0.578 OA
ENDBRANCH  64  66
ENDBRANCH  58  64
BRANCH  59  70
HETATM   70  O1  SGN C   1      31.687  83.169  15.538  1.00 51.36    -0.369 OA
ATOM     71  H1  SGN C   1      32.334  82.523  15.281  1.00  0.00     0.212 HD
ENDBRANCH  59  70
BRANCH  61  72
HETATM   72  C6  SGN C   1      28.313  85.507  15.599  1.00 55.48     0.227 C 
BRANCH  72  73
HETATM   73  O6  SGN C   1      28.673  85.849  16.955  1.00 61.59    -0.254 OA
BRANCH  73  74
HETATM   74  S2  SGN C   1      27.684  86.866  17.682  1.00 65.98     0.251 S 
HETATM   75  O4S SGN C   1      26.306  86.202  17.726  1.00 65.09    -0.572 OA
HETATM   76  O5S SGN C   1      27.675  88.077  16.881  1.00 65.58    -0.572 OA
HETATM   77  O6S SGN C   1      28.255  87.120  19.112  1.00 65.84    -0.572 OA
ENDBRANCH  73  74
ENDBRANCH  72  73
ENDBRANCH  61  72
ENDBRANCH  55  56
ENDBRANCH   1  55
TORSDOF 27
ENDMDL
MODEL 65
REMARK VINA RESULT:      -5.2      5.412     12.016
REMARK  27 active torsions:
REMARK  status: ('A' for Active; 'I' for Inactive)
REMARK    1  A    between atoms: C1_1  and  O1_2 
REMARK    2  A    between atoms: S1_5  and  N2_7 
REMARK    3  A    between atoms: C2_6  and  N2_7 
REMARK    4  A    between atoms: S2_10  and  O6_22 
REMARK    5  A    between atoms: C3_11  and  O3_12 
REMARK    6  A    between atoms: C4_15  and  O4_16 
REMARK    7  A    between atoms: O4_16  and  C1_24 
REMARK    8  A    between atoms: C5_18  and  C6_21 
REMARK    9  A    between atoms: C6_21  and  O6_22 
REMARK   10  A    between atoms: C2_26  and  O2_27 
REMARK   11  A    between atoms: O2_27  and  S_40 
REMARK   12  A    between atoms: C3_29  and  O3_30 
REMARK   13  A    between atoms: C4_33  and  O4_34 
REMARK   14  A    between atoms: O4_34  and  C1_41 
REMARK   15  A    between atoms: C5_35  and  C6_37 
REMARK   16  A    between atoms: S1_43  and  N2_45 
REMARK   17  A    between atoms: C2_44  and  N2_45 
REMARK   18  A    between atoms: S2_48  and  O6_60 
REMARK   19  A    between atoms: C3_49  and  O3_50 
REMARK   20  A    between atoms: C4_53  and  O4_54 
REMARK   21  A    between atoms: O4_54  and  C1_62 
REMARK   22  A    between atoms: C5_56  and  C6_59 
REMARK   23  A    between atoms: C6_59  and  O6_60 
REMARK   24  A    between atoms: C2_64  and  O2_65 
REMARK   25  A    between atoms: O2_65  and  S_77 
REMARK   26  A    between atoms: C3_67  and  O3_68 
REMARK   27  A    between atoms: C5_72  and  C6_74 
ROOT
HETATM    1  C1  IDS C   2      27.073  81.821  13.052  1.00 40.81     0.294 C 
HETATM    2  C2  IDS C   2      26.812  80.378  13.494  1.00 40.20     0.231 C 
HETATM    3  C3  IDS C   2      25.505  79.853  12.908  1.00 39.01     0.185 C 
HETATM    4  C4  IDS C   2      24.309  80.711  13.368  1.00 37.65     0.195 C 
HETATM    5  C5  IDS C   2      24.802  82.092  13.820  1.00 35.99     0.257 C 
HETATM    6  O5  IDS C   2      25.837  82.558  12.922  1.00 39.00    -0.340 OA
ENDROOT
BRANCH   4   7
HETATM    7  O4  IDS C   2      23.360  80.854  12.282  1.00 35.98    -0.348 OA
BRANCH   7   8
HETATM    8  C1  SGN C   3      22.126  80.210  12.452  1.00 35.40     0.287 C 
HETATM    9  C2  SGN C   3      21.726  79.481  11.157  1.00 33.71     0.182 C 
HETATM   10  C3  SGN C   3      21.283  80.450  10.056  1.00 35.79     0.178 C 
HETATM   11  C4  SGN C   3      20.295  81.506  10.583  1.00 36.62     0.186 C 
HETATM   12  C5  SGN C   3      20.832  82.131  11.864  1.00 39.32     0.181 C 
HETATM   13  O5  SGN C   3      21.101  81.108  12.839  1.00 37.58    -0.349 OA
BRANCH   9  14
HETATM   14  N2  SGN C   3      22.848  78.707  10.672  1.00 29.28    -0.289 N 
ATOM     15  H2  SGN C   3      23.112  77.827  11.113  1.00  0.00     0.175 HD
BRANCH  14  16
HETATM   16  S1  SGN C   3      23.687  79.302   9.379  1.00 27.84     0.205 S 
HETATM   17  O1S SGN C   3      23.102  78.638   8.229  1.00 27.65    -0.578 OA
HETATM   18  O2S SGN C   3      25.106  78.904   9.616  1.00 27.72    -0.578 OA
HETATM   19  O3S SGN C   3      23.524  80.789   9.322  1.00 28.50    -0.578 OA
ENDBRANCH  14  16
ENDBRANCH   9  14
BRANCH  10  20
HETATM   20  O3  SGN C   3      20.690  79.717   8.987  1.00 34.89    -0.391 OA
ATOM     21  H3  SGN C   3      19.796  79.490   9.216  1.00  0.00     0.210 HD
ENDBRANCH  10  20
BRANCH  11  22
HETATM   22  O4  SGN C   3      20.141  82.543   9.597  1.00 37.13    -0.348 OA
BRANCH  22  23
HETATM   23  C1  UAP C   4      18.856  82.706   9.104  1.00 39.64     0.294 C 
HETATM   24  C2  UAP C   4      18.644  84.144   8.665  1.00 38.70     0.228 C 
HETATM   25  C3  UAP C   4      17.200  84.346   8.214  1.00 38.51     0.156 C 
HETATM   26  C4  UAP C   4      16.624  83.144   7.331  1.00 38.14     0.077 C 
HETATM   27  C5  UAP C   4      17.437  82.002   7.292  1.00 38.51     0.228 C 
HETATM   28  O5  UAP C   4      18.711  81.850   7.979  1.00 37.46    -0.343 OA
BRANCH  24  29
HETATM   29  O2  UAP C   4      18.881  85.053   9.787  1.00 40.54    -0.244 OA
BRANCH  29  30
HETATM   30  S   UAP C   4      19.809  86.346   9.620  1.00 40.49     0.252 S 
HETATM   31  O1S UAP C   4      19.742  86.742   8.206  1.00 40.89    -0.572 OA
HETATM   32  O2S UAP C   4      21.169  85.945  10.007  1.00 37.88    -0.572 OA
HETATM   33  O3S UAP C   4      19.267  87.386  10.509  1.00 37.47    -0.572 OA
ENDBRANCH  29  30
ENDBRANCH  24  29
BRANCH  25  34
HETATM   34  O3  UAP C   4      17.112  85.554   7.475  1.00 38.58    -0.393 OA
ATOM     35  H3  UAP C   4      16.220  85.666   7.170  1.00  0.00     0.210 HD
ENDBRANCH  25  34
BRANCH  27  36
HETATM   36  C6  UAP C   4      17.086  80.797   6.490  1.00 37.96     0.203 C 
HETATM   37  O6A UAP C   4      17.925  79.879   6.410  1.00 40.05    -0.646 OA
HETATM   38  O6B UAP C   4      15.968  80.762   5.933  1.00 36.71    -0.646 OA
ENDBRANCH  27  36
ENDBRANCH  22  23
ENDBRANCH  11  22
BRANCH  12  39
HETATM   39  C6  SGN C   3      19.899  83.119  12.507  1.00 42.65     0.227 C 
BRANCH  39  40
HETATM   40  O6  SGN C   3      20.672  84.326  12.688  1.00 51.09    -0.254 OA
BRANCH  40  41
HETATM   41  S2  SGN C   3      20.031  85.442  13.632  1.00 54.80     0.251 S 
HETATM   42  O4S SGN C   3      20.771  86.695  13.398  1.00 54.99    -0.572 OA
HETATM   43  O5S SGN C   3      20.191  84.957  15.035  1.00 53.99    -0.572 OA
HETATM   44  O6S SGN C   3      18.630  85.563  13.252  1.00 55.43    -0.572 OA
ENDBRANCH  40  41
ENDBRANCH  39  40
ENDBRANCH  12  39
ENDBRANCH   7   8
ENDBRANCH   4   7
BRANCH   3  45
HETATM   45  O3  IDS C   2      25.313  78.504  13.310  1.00 39.65    -0.390 OA
ATOM     46  H3  IDS C   2      26.150  78.056  13.325  1.00  0.00     0.210 HD
ENDBRANCH   3  45
BRANCH   5  47
HETATM   47  C6  IDS C   2      23.726  83.167  13.890  1.00 36.10     0.206 C 
HETATM   48  O6A IDS C   2      22.858  83.061  14.784  1.00 32.44    -0.646 OA
HETATM   49  O6B IDS C   2      23.771  84.110  13.064  1.00 33.44    -0.646 OA
ENDBRANCH   5  47
BRANCH   2  50
HETATM   50  O2  IDS C   2      27.896  79.520  13.032  1.00 43.59    -0.244 OA
BRANCH  50  51
HETATM   51  S   IDS C   2      28.720  78.653  14.088  1.00 44.11     0.252 S 
HETATM   52  O1S IDS C   2      28.070  77.299  14.138  1.00 44.48    -0.572 OA
HETATM   53  O2S IDS C   2      28.639  79.358  15.385  1.00 44.29    -0.572 OA
HETATM   54  O3S IDS C   2      30.085  78.579  13.600  1.00 44.74    -0.572 OA
ENDBRANCH  50  51
ENDBRANCH   2  50
BRANCH   1  55
HETATM   55  O4  SGN C   1      27.869  82.456  13.994  1.00 44.73    -0.348 OA
BRANCH  55  56
HETATM   56  C4  SGN C   1      28.484  83.708  13.616  1.00 48.25     0.186 C 
HETATM   57  C3  SGN C   1      28.615  84.614  14.846  1.00 48.43     0.178 C 
HETATM   58  C2  SGN C   1      29.403  85.873  14.489  1.00 48.58     0.181 C 
HETATM   59  C1  SGN C   1      30.743  85.532  13.841  1.00 50.40     0.283 C 
HETATM   60  O5  SGN C   1      30.539  84.688  12.701  1.00 50.82    -0.349 OA
HETATM   61  C5  SGN C   1      29.882  83.442  13.031  1.00 51.58     0.181 C 
BRANCH  57  62
HETATM   62  O3  SGN C   1      27.327  84.984  15.314  1.00 46.09    -0.391 OA
ATOM     63  H3  SGN C   1      27.000  84.310  15.899  1.00  0.00     0.210 HD
ENDBRANCH  57  62
BRANCH  58  64
HETATM   64  N2  SGN C   1      29.626  86.683  15.670  1.00 48.56    -0.289 N 
ATOM     65  H2  SGN C   1      30.087  86.323  16.505  1.00  0.00     0.175 HD
BRANCH  64  66
HETATM   66  S1  SGN C   1      29.071  88.237  15.553  1.00 47.67     0.205 S 
HETATM   67  O1S SGN C   1      29.052  88.786  16.927  1.00 47.59    -0.578 OA
HETATM   68  O2S SGN C   1      27.728  88.129  14.974  1.00 48.55    -0.578 OA
HETATM   69  O3S SGN C   1      30.013  88.958  14.670  1.00 47.08    -0.578 OA
ENDBRANCH  64  66
ENDBRANCH  58  64
BRANCH  59  70
HETATM   70  O1  SGN C   1      31.550  84.864  14.749  1.00 51.36    -0.369 OA
ATOM     71  H1  SGN C   1      31.315  83.944  14.774  1.00  0.00     0.212 HD
ENDBRANCH  59  70
BRANCH  61  72
HETATM   72  C6  SGN C   1      29.836  82.629  11.762  1.00 55.48     0.227 C 
BRANCH  72  73
HETATM   73  O6  SGN C   1      29.766  83.514  10.623  1.00 61.59    -0.254 OA
BRANCH  73  74
HETATM   74  S2  SGN C   1      28.482  83.326   9.699  1.00 65.98     0.251 S 
HETATM   75  O4S SGN C   1      28.147  81.833   9.689  1.00 65.09    -0.572 OA
HETATM   76  O5S SGN C   1      28.849  83.806   8.379  1.00 65.58    -0.572 OA
HETATM   77  O6S SGN C   1      27.333  84.177  10.328  1.00 65.84    -0.572 OA
ENDBRANCH  73  74
ENDBRANCH  72  73
ENDBRANCH  61  72
ENDBRANCH  55  56
ENDBRANCH   1  55
TORSDOF 27
ENDMDL
MODEL 66
REMARK VINA RESULT:      -5.2      4.964     11.040
REMARK  27 active torsions:
REMARK  status: ('A' for Active; 'I' for Inactive)
REMARK    1  A    between atoms: C1_1  and  O1_2 
REMARK    2  A    between atoms: S1_5  and  N2_7 
REMARK    3  A    between atoms: C2_6  and  N2_7 
REMARK    4  A    between atoms: S2_10  and  O6_22 
REMARK    5  A    between atoms: C3_11  and  O3_12 
REMARK    6  A    between atoms: C4_15  and  O4_16 
REMARK    7  A    between atoms: O4_16  and  C1_24 
REMARK    8  A    between atoms: C5_18  and  C6_21 
REMARK    9  A    between atoms: C6_21  and  O6_22 
REMARK   10  A    between atoms: C2_26  and  O2_27 
REMARK   11  A    between atoms: O2_27  and  S_40 
REMARK   12  A    between atoms: C3_29  and  O3_30 
REMARK   13  A    between atoms: C4_33  and  O4_34 
REMARK   14  A    between atoms: O4_34  and  C1_41 
REMARK   15  A    between atoms: C5_35  and  C6_37 
REMARK   16  A    between atoms: S1_43  and  N2_45 
REMARK   17  A    between atoms: C2_44  and  N2_45 
REMARK   18  A    between atoms: S2_48  and  O6_60 
REMARK   19  A    between atoms: C3_49  and  O3_50 
REMARK   20  A    between atoms: C4_53  and  O4_54 
REMARK   21  A    between atoms: O4_54  and  C1_62 
REMARK   22  A    between atoms: C5_56  and  C6_59 
REMARK   23  A    between atoms: C6_59  and  O6_60 
REMARK   24  A    between atoms: C2_64  and  O2_65 
REMARK   25  A    between atoms: O2_65  and  S_77 
REMARK   26  A    between atoms: C3_67  and  O3_68 
REMARK   27  A    between atoms: C5_72  and  C6_74 
ROOT
HETATM    1  C1  IDS C   2      32.191  75.003  18.666  1.00 40.81     0.294 C 
HETATM    2  C2  IDS C   2      32.703  73.599  18.995  1.00 40.20     0.231 C 
HETATM    3  C3  IDS C   2      34.225  73.534  18.901  1.00 39.01     0.185 C 
HETATM    4  C4  IDS C   2      34.706  73.891  17.480  1.00 37.65     0.195 C 
HETATM    5  C5  IDS C   2      33.621  74.691  16.748  1.00 35.99     0.257 C 
HETATM    6  O5  IDS C   2      33.013  75.636  17.661  1.00 39.00    -0.340 OA
ENDROOT
BRANCH   4   7
HETATM    7  O4  IDS C   2      35.928  74.667  17.556  1.00 35.98    -0.348 OA
BRANCH   7   8
HETATM    8  C1  SGN C   3      36.262  75.168  18.822  1.00 35.40     0.287 C 
HETATM    9  C2  SGN C   3      37.299  76.297  18.687  1.00 33.71     0.182 C 
HETATM   10  C3  SGN C   3      38.691  75.770  18.319  1.00 35.79     0.178 C 
HETATM   11  C4  SGN C   3      39.097  74.565  19.185  1.00 36.62     0.186 C 
HETATM   12  C5  SGN C   3      37.969  73.542  19.219  1.00 39.32     0.181 C 
HETATM   13  O5  SGN C   3      36.755  74.158  19.685  1.00 37.58    -0.349 OA
BRANCH   9  14
HETATM   14  N2  SGN C   3      36.869  77.228  17.667  1.00 29.28    -0.289 N 
ATOM     15  H2  SGN C   3      36.088  77.864  17.829  1.00  0.00     0.175 HD
BRANCH  14  16
HETATM   16  S1  SGN C   3      37.687  77.225  16.233  1.00 27.84     0.205 S 
HETATM   17  O1S SGN C   3      38.235  75.885  16.129  1.00 27.65    -0.578 OA
HETATM   18  O2S SGN C   3      38.743  78.270  16.381  1.00 27.72    -0.578 OA
HETATM   19  O3S SGN C   3      36.739  77.540  15.118  1.00 28.50    -0.578 OA
ENDBRANCH  14  16
ENDBRANCH   9  14
BRANCH  10  20
HETATM   20  O3  SGN C   3      39.648  76.817  18.459  1.00 34.89    -0.391 OA
ATOM     21  H3  SGN C   3      40.425  76.480  18.889  1.00  0.00     0.210 HD
ENDBRANCH  10  20
BRANCH  11  22
HETATM   22  O4  SGN C   3      40.261  73.943  18.613  1.00 37.13    -0.348 OA
BRANCH  22  23
HETATM   23  C1  UAP C   4      41.422  74.058  19.361  1.00 39.64     0.294 C 
HETATM   24  C2  UAP C   4      42.298  72.835  19.158  1.00 38.70     0.228 C 
HETATM   25  C3  UAP C   4      43.529  72.917  20.056  1.00 38.51     0.156 C 
HETATM   26  C4  UAP C   4      44.188  74.372  20.120  1.00 38.14     0.077 C 
HETATM   27  C5  UAP C   4      43.420  75.390  19.535  1.00 38.51     0.228 C 
HETATM   28  O5  UAP C   4      42.120  75.210  18.905  1.00 37.46    -0.343 OA
BRANCH  24  29
HETATM   29  O2  UAP C   4      41.566  71.624  19.533  1.00 40.54    -0.244 OA
BRANCH  29  30
HETATM   30  S   UAP C   4      41.474  70.374  18.537  1.00 40.49     0.252 S 
HETATM   31  O1S UAP C   4      40.321  69.568  18.966  1.00 40.89    -0.572 OA
HETATM   32  O2S UAP C   4      42.735  69.631  18.671  1.00 37.88    -0.572 OA
HETATM   33  O3S UAP C   4      41.292  70.914  17.180  1.00 37.47    -0.572 OA
ENDBRANCH  29  30
ENDBRANCH  24  29
BRANCH  25  34
HETATM   34  O3  UAP C   4      44.497  71.985  19.599  1.00 38.58    -0.393 OA
ATOM     35  H3  UAP C   4      45.332  72.427  19.507  1.00  0.00     0.210 HD
ENDBRANCH  25  34
BRANCH  27  36
HETATM   36  C6  UAP C   4      43.886  76.802  19.463  1.00 37.96     0.203 C 
HETATM   37  O6A UAP C   4      43.611  77.562  20.413  1.00 40.05    -0.646 OA
HETATM   38  O6B UAP C   4      44.528  77.163  18.453  1.00 36.71    -0.646 OA
ENDBRANCH  27  36
ENDBRANCH  22  23
ENDBRANCH  11  22
BRANCH  12  39
HETATM   39  C6  SGN C   3      38.234  72.360  20.110  1.00 42.65     0.227 C 
BRANCH  39  40
HETATM   40  O6  SGN C   3      38.376  72.899  21.442  1.00 51.09    -0.254 OA
BRANCH  40  41
HETATM   41  S2  SGN C   3      37.543  72.172  22.592  1.00 54.80     0.251 S 
HETATM   42  O4S SGN C   3      37.712  72.962  23.826  1.00 54.99    -0.572 OA
HETATM   43  O5S SGN C   3      38.114  70.799  22.730  1.00 53.99    -0.572 OA
HETATM   44  O6S SGN C   3      36.153  72.145  22.155  1.00 55.43    -0.572 OA
ENDBRANCH  40  41
ENDBRANCH  39  40
ENDBRANCH  12  39
ENDBRANCH   7   8
ENDBRANCH   4   7
BRANCH   3  45
HETATM   45  O3  IDS C   2      34.665  72.227  19.245  1.00 39.65    -0.390 OA
ATOM     46  H3  IDS C   2      34.123  71.884  19.944  1.00  0.00     0.210 HD
ENDBRANCH   3  45
BRANCH   5  47
HETATM   47  C6  IDS C   2      34.104  75.464  15.529  1.00 36.10     0.206 C 
HETATM   48  O6A IDS C   2      33.815  76.679  15.461  1.00 32.44    -0.646 OA
HETATM   49  O6B IDS C   2      34.777  74.853  14.664  1.00 33.44    -0.646 OA
ENDBRANCH   5  47
BRANCH   2  50
HETATM   50  O2  IDS C   2      32.315  73.240  20.353  1.00 43.59    -0.244 OA
BRANCH  50  51
HETATM   51  S   IDS C   2      31.780  71.768  20.658  1.00 44.11     0.252 S 
HETATM   52  O1S IDS C   2      30.410  71.919  21.259  1.00 44.48    -0.572 OA
HETATM   53  O2S IDS C   2      32.735  71.146  21.599  1.00 44.29    -0.572 OA
HETATM   54  O3S IDS C   2      31.738  71.064  19.390  1.00 44.74    -0.572 OA
ENDBRANCH  50  51
ENDBRANCH   2  50
BRANCH   1  55
HETATM   55  O4  SGN C   1      30.891  74.921  18.187  1.00 44.73    -0.348 OA
BRANCH  55  56
HETATM   56  C4  SGN C   1      30.150  76.153  18.045  1.00 48.25     0.186 C 
HETATM   57  C3  SGN C   1      29.697  76.323  16.590  1.00 48.43     0.178 C 
HETATM   58  C2  SGN C   1      28.784  77.541  16.463  1.00 48.58     0.181 C 
HETATM   59  C1  SGN C   1      27.625  77.479  17.457  1.00 50.40     0.283 C 
HETATM   60  O5  SGN C   1      28.127  77.324  18.790  1.00 50.82    -0.349 OA
HETATM   61  C5  SGN C   1      28.915  76.122  18.961  1.00 51.58     0.181 C 
BRANCH  57  62
HETATM   62  O3  SGN C   1      30.827  76.495  15.749  1.00 46.09    -0.391 OA
ATOM     63  H3  SGN C   1      31.450  75.797  15.914  1.00  0.00     0.210 HD
ENDBRANCH  57  62
BRANCH  58  64
HETATM   64  N2  SGN C   1      28.263  77.644  15.116  1.00 48.56    -0.289 N 
ATOM     65  H2  SGN C   1      27.653  76.937  14.704  1.00  0.00     0.175 HD
BRANCH  64  66
HETATM   66  S1  SGN C   1      28.738  79.002  14.297  1.00 47.67     0.205 S 
HETATM   67  O1S SGN C   1      27.676  79.296  13.310  1.00 47.59    -0.578 OA
HETATM   68  O2S SGN C   1      30.011  78.649  13.662  1.00 48.55    -0.578 OA
HETATM   69  O3S SGN C   1      28.885  80.074  15.306  1.00 47.08    -0.578 OA
ENDBRANCH  64  66
ENDBRANCH  58  64
BRANCH  59  70
HETATM   70  O1  SGN C   1      26.807  76.399  17.162  1.00 51.36    -0.369 OA
ATOM     71  H1  SGN C   1      27.325  75.690  16.800  1.00  0.00     0.212 HD
ENDBRANCH  59  70
BRANCH  61  72
HETATM   72  C6  SGN C   1      29.276  76.048  20.423  1.00 55.48     0.227 C 
BRANCH  72  73
HETATM   73  O6  SGN C   1      28.251  76.696  21.208  1.00 61.59    -0.254 OA
BRANCH  73  74
HETATM   74  S2  SGN C   1      27.705  75.847  22.441  1.00 65.98     0.251 S 
HETATM   75  O4S SGN C   1      26.180  75.972  22.435  1.00 65.09    -0.572 OA
HETATM   76  O5S SGN C   1      28.290  76.429  23.635  1.00 65.58    -0.572 OA
HETATM   77  O6S SGN C   1      28.169  74.372  22.226  1.00 65.84    -0.572 OA
ENDBRANCH  73  74
ENDBRANCH  72  73
ENDBRANCH  61  72
ENDBRANCH  55  56
ENDBRANCH   1  55
TORSDOF 27
ENDMDL
MODEL 67
REMARK VINA RESULT:      -5.2      9.808     15.246
REMARK  27 active torsions:
REMARK  status: ('A' for Active; 'I' for Inactive)
REMARK    1  A    between atoms: C1_1  and  O1_2 
REMARK    2  A    between atoms: S1_5  and  N2_7 
REMARK    3  A    between atoms: C2_6  and  N2_7 
REMARK    4  A    between atoms: S2_10  and  O6_22 
REMARK    5  A    between atoms: C3_11  and  O3_12 
REMARK    6  A    between atoms: C4_15  and  O4_16 
REMARK    7  A    between atoms: O4_16  and  C1_24 
REMARK    8  A    between atoms: C5_18  and  C6_21 
REMARK    9  A    between atoms: C6_21  and  O6_22 
REMARK   10  A    between atoms: C2_26  and  O2_27 
REMARK   11  A    between atoms: O2_27  and  S_40 
REMARK   12  A    between atoms: C3_29  and  O3_30 
REMARK   13  A    between atoms: C4_33  and  O4_34 
REMARK   14  A    between atoms: O4_34  and  C1_41 
REMARK   15  A    between atoms: C5_35  and  C6_37 
REMARK   16  A    between atoms: S1_43  and  N2_45 
REMARK   17  A    between atoms: C2_44  and  N2_45 
REMARK   18  A    between atoms: S2_48  and  O6_60 
REMARK   19  A    between atoms: C3_49  and  O3_50 
REMARK   20  A    between atoms: C4_53  and  O4_54 
REMARK   21  A    between atoms: O4_54  and  C1_62 
REMARK   22  A    between atoms: C5_56  and  C6_59 
REMARK   23  A    between atoms: C6_59  and  O6_60 
REMARK   24  A    between atoms: C2_64  and  O2_65 
REMARK   25  A    between atoms: O2_65  and  S_77 
REMARK   26  A    between atoms: C3_67  and  O3_68 
REMARK   27  A    between atoms: C5_72  and  C6_74 
ROOT
HETATM    1  C1  IDS C   2      20.482  79.070   4.421  1.00 40.81     0.294 C 
HETATM    2  C2  IDS C   2      22.010  79.158   4.435  1.00 40.20     0.231 C 
HETATM    3  C3  IDS C   2      22.497  80.052   5.572  1.00 39.01     0.185 C 
HETATM    4  C4  IDS C   2      21.943  81.484   5.426  1.00 37.65     0.195 C 
HETATM    5  C5  IDS C   2      20.695  81.471   4.533  1.00 35.99     0.257 C 
HETATM    6  O5  IDS C   2      19.884  80.314   4.848  1.00 39.00    -0.340 OA
ENDROOT
BRANCH   4   7
HETATM    7  O4  IDS C   2      21.613  82.018   6.733  1.00 35.98    -0.348 OA
BRANCH   7   8
HETATM    8  C1  SGN C   3      21.560  81.090   7.783  1.00 35.40     0.287 C 
HETATM    9  C2  SGN C   3      20.269  81.286   8.597  1.00 33.71     0.182 C 
HETATM   10  C3  SGN C   3      20.312  82.550   9.464  1.00 35.79     0.178 C 
HETATM   11  C4  SGN C   3      21.636  82.672  10.236  1.00 36.62     0.186 C 
HETATM   12  C5  SGN C   3      22.814  82.452   9.295  1.00 39.32     0.181 C 
HETATM   13  O5  SGN C   3      22.688  81.180   8.634  1.00 37.58    -0.349 OA
BRANCH   9  14
HETATM   14  N2  SGN C   3      19.140  81.376   7.698  1.00 29.28    -0.289 N 
ATOM     15  H2  SGN C   3      19.067  82.132   7.017  1.00  0.00     0.175 HD
BRANCH  14  16
HETATM   16  S1  SGN C   3      17.973  80.213   7.813  1.00 27.84     0.205 S 
HETATM   17  O1S SGN C   3      17.309  80.486   9.074  1.00 27.65    -0.578 OA
HETATM   18  O2S SGN C   3      18.712  78.916   7.820  1.00 27.72    -0.578 OA
HETATM   19  O3S SGN C   3      17.043  80.323   6.645  1.00 28.50    -0.578 OA
ENDBRANCH  14  16
ENDBRANCH   9  14
BRANCH  10  20
HETATM   20  O3  SGN C   3      19.214  82.540  10.373  1.00 34.89    -0.391 OA
ATOM     21  H3  SGN C   3      18.406  82.688   9.896  1.00  0.00     0.210 HD
ENDBRANCH  10  20
BRANCH  11  22
HETATM   22  O4  SGN C   3      21.738  83.994  10.794  1.00 37.13    -0.348 OA
BRANCH  22  23
HETATM   23  C1  UAP C   4      21.890  84.047  12.171  1.00 39.64     0.294 C 
HETATM   24  C2  UAP C   4      20.613  84.549  12.819  1.00 38.70     0.228 C 
HETATM   25  C3  UAP C   4      20.813  84.699  14.325  1.00 38.51     0.156 C 
HETATM   26  C4  UAP C   4      21.633  83.500  14.991  1.00 38.14     0.077 C 
HETATM   27  C5  UAP C   4      22.230  82.618  14.078  1.00 38.51     0.228 C 
HETATM   28  O5  UAP C   4      22.156  82.727  12.628  1.00 37.46    -0.343 OA
BRANCH  24  29
HETATM   29  O2  UAP C   4      20.267  85.870  12.292  1.00 40.54    -0.244 OA
BRANCH  29  30
HETATM   30  S   UAP C   4      18.793  86.182  11.750  1.00 40.49     0.252 S 
HETATM   31  O1S UAP C   4      18.603  85.373  10.537  1.00 40.89    -0.572 OA
HETATM   32  O2S UAP C   4      18.746  87.622  11.455  1.00 37.88    -0.572 OA
HETATM   33  O3S UAP C   4      17.851  85.806  12.815  1.00 37.47    -0.572 OA
ENDBRANCH  29  30
ENDBRANCH  24  29
BRANCH  25  34
HETATM   34  O3  UAP C   4      19.544  84.805  14.951  1.00 38.58    -0.393 OA
ATOM     35  H3  UAP C   4      19.602  84.445  15.828  1.00  0.00     0.210 HD
ENDBRANCH  25  34
BRANCH  27  36
HETATM   36  C6  UAP C   4      22.999  81.419  14.510  1.00 37.96     0.203 C 
HETATM   37  O6A UAP C   4      23.877  81.566  15.384  1.00 40.05    -0.646 OA
HETATM   38  O6B UAP C   4      22.733  80.321  13.976  1.00 36.71    -0.646 OA
ENDBRANCH  27  36
ENDBRANCH  22  23
ENDBRANCH  11  22
BRANCH  12  39
HETATM   39  C6  SGN C   3      24.156  82.468   9.971  1.00 42.65     0.227 C 
BRANCH  39  40
HETATM   40  O6  SGN C   3      24.951  81.475   9.286  1.00 51.09    -0.254 OA
BRANCH  40  41
HETATM   41  S2  SGN C   3      25.579  80.322  10.194  1.00 54.80     0.251 S 
HETATM   42  O4S SGN C   3      26.776  80.880  10.850  1.00 54.99    -0.572 OA
HETATM   43  O5S SGN C   3      25.924  79.197   9.275  1.00 53.99    -0.572 OA
HETATM   44  O6S SGN C   3      24.559  79.944  11.163  1.00 55.43    -0.572 OA
ENDBRANCH  40  41
ENDBRANCH  39  40
ENDBRANCH  12  39
ENDBRANCH   7   8
ENDBRANCH   4   7
BRANCH   3  45
HETATM   45  O3  IDS C   2      23.918  80.083   5.575  1.00 39.65    -0.390 OA
ATOM     46  H3  IDS C   2      24.237  79.894   6.449  1.00  0.00     0.210 HD
ENDBRANCH   3  45
BRANCH   5  47
HETATM   47  C6  IDS C   2      19.811  82.705   4.646  1.00 36.10     0.206 C 
HETATM   48  O6A IDS C   2      18.616  82.535   4.973  1.00 32.44    -0.646 OA
HETATM   49  O6B IDS C   2      20.325  83.828   4.421  1.00 33.44    -0.646 OA
ENDBRANCH   5  47
BRANCH   2  50
HETATM   50  O2  IDS C   2      22.577  77.829   4.625  1.00 43.59    -0.244 OA
BRANCH  50  51
HETATM   51  S   IDS C   2      23.607  77.250   3.552  1.00 44.11     0.252 S 
HETATM   52  O1S IDS C   2      24.982  77.639   4.017  1.00 44.48    -0.572 OA
HETATM   53  O2S IDS C   2      23.266  77.861   2.250  1.00 44.29    -0.572 OA
HETATM   54  O3S IDS C   2      23.431  75.809   3.534  1.00 44.74    -0.572 OA
ENDBRANCH  50  51
ENDBRANCH   2  50
BRANCH   1  55
HETATM   55  O4  SGN C   1      20.047  78.789   3.134  1.00 44.73    -0.348 OA
BRANCH  55  56
HETATM   56  C4  SGN C   1      18.805  78.066   2.990  1.00 48.25     0.186 C 
HETATM   57  C3  SGN C   1      17.706  79.015   2.497  1.00 48.43     0.178 C 
HETATM   58  C2  SGN C   1      16.431  78.230   2.193  1.00 48.58     0.181 C 
HETATM   59  C1  SGN C   1      16.701  77.067   1.241  1.00 50.40     0.283 C 
HETATM   60  O5  SGN C   1      17.734  76.226   1.770  1.00 50.82    -0.349 OA
HETATM   61  C5  SGN C   1      18.984  76.926   1.973  1.00 51.58     0.181 C 
BRANCH  57  62
HETATM   62  O3  SGN C   1      17.430  79.992   3.488  1.00 46.09    -0.391 OA
ATOM     63  H3  SGN C   1      17.878  80.800   3.266  1.00  0.00     0.210 HD
ENDBRANCH  57  62
BRANCH  58  64
HETATM   64  N2  SGN C   1      15.424  79.101   1.623  1.00 48.56    -0.289 N 
ATOM     65  H2  SGN C   1      15.554  79.588   0.737  1.00  0.00     0.175 HD
BRANCH  64  66
HETATM   66  S1  SGN C   1      14.045  79.242   2.527  1.00 47.67     0.205 S 
HETATM   67  O1S SGN C   1      13.563  77.868   2.785  1.00 47.59    -0.578 OA
HETATM   68  O2S SGN C   1      13.115  80.018   1.701  1.00 48.55    -0.578 OA
HETATM   69  O3S SGN C   1      14.425  79.949   3.770  1.00 47.08    -0.578 OA
ENDBRANCH  64  66
ENDBRANCH  58  64
BRANCH  59  70
HETATM   70  O1  SGN C   1      17.112  77.552   0.008  1.00 51.36    -0.369 OA
ATOM     71  H1  SGN C   1      16.783  76.992  -0.685  1.00  0.00     0.212 HD
ENDBRANCH  59  70
BRANCH  61  72
HETATM   72  C6  SGN C   1      19.987  75.895   2.426  1.00 55.48     0.227 C 
BRANCH  72  73
HETATM   73  O6  SGN C   1      19.670  74.618   1.829  1.00 61.59    -0.254 OA
BRANCH  73  74
HETATM   74  S2  SGN C   1      19.337  73.452   2.863  1.00 65.98     0.251 S 
HETATM   75  O4S SGN C   1      18.029  72.803   2.405  1.00 65.09    -0.572 OA
HETATM   76  O5S SGN C   1      19.203  74.079   4.164  1.00 65.58    -0.572 OA
HETATM   77  O6S SGN C   1      20.531  72.447   2.822  1.00 65.84    -0.572 OA
ENDBRANCH  73  74
ENDBRANCH  72  73
ENDBRANCH  61  72
ENDBRANCH  55  56
ENDBRANCH   1  55
TORSDOF 27
ENDMDL
MODEL 68
REMARK VINA RESULT:      -5.2      6.463     12.414
REMARK  27 active torsions:
REMARK  status: ('A' for Active; 'I' for Inactive)
REMARK    1  A    between atoms: C1_1  and  O1_2 
REMARK    2  A    between atoms: S1_5  and  N2_7 
REMARK    3  A    between atoms: C2_6  and  N2_7 
REMARK    4  A    between atoms: S2_10  and  O6_22 
REMARK    5  A    between atoms: C3_11  and  O3_12 
REMARK    6  A    between atoms: C4_15  and  O4_16 
REMARK    7  A    between atoms: O4_16  and  C1_24 
REMARK    8  A    between atoms: C5_18  and  C6_21 
REMARK    9  A    between atoms: C6_21  and  O6_22 
REMARK   10  A    between atoms: C2_26  and  O2_27 
REMARK   11  A    between atoms: O2_27  and  S_40 
REMARK   12  A    between atoms: C3_29  and  O3_30 
REMARK   13  A    between atoms: C4_33  and  O4_34 
REMARK   14  A    between atoms: O4_34  and  C1_41 
REMARK   15  A    between atoms: C5_35  and  C6_37 
REMARK   16  A    between atoms: S1_43  and  N2_45 
REMARK   17  A    between atoms: C2_44  and  N2_45 
REMARK   18  A    between atoms: S2_48  and  O6_60 
REMARK   19  A    between atoms: C3_49  and  O3_50 
REMARK   20  A    between atoms: C4_53  and  O4_54 
REMARK   21  A    between atoms: O4_54  and  C1_62 
REMARK   22  A    between atoms: C5_56  and  C6_59 
REMARK   23  A    between atoms: C6_59  and  O6_60 
REMARK   24  A    between atoms: C2_64  and  O2_65 
REMARK   25  A    between atoms: O2_65  and  S_77 
REMARK   26  A    between atoms: C3_67  and  O3_68 
REMARK   27  A    between atoms: C5_72  and  C6_74 
ROOT
HETATM    1  C1  IDS C   2      24.903  82.820  13.268  1.00 40.81     0.294 C 
HETATM    2  C2  IDS C   2      24.615  81.331  13.475  1.00 40.20     0.231 C 
HETATM    3  C3  IDS C   2      23.270  80.943  12.867  1.00 39.01     0.185 C 
HETATM    4  C4  IDS C   2      22.120  81.741  13.513  1.00 37.65     0.195 C 
HETATM    5  C5  IDS C   2      22.672  83.015  14.166  1.00 35.99     0.257 C 
HETATM    6  O5  IDS C   2      23.686  83.598  13.314  1.00 39.00    -0.340 OA
ENDROOT
BRANCH   4   7
HETATM    7  O4  IDS C   2      21.135  82.086  12.507  1.00 35.98    -0.348 OA
BRANCH   7   8
HETATM    8  C1  SGN C   3      21.579  82.918  11.469  1.00 35.40     0.287 C 
HETATM    9  C2  SGN C   3      20.413  83.769  10.937  1.00 33.71     0.182 C 
HETATM   10  C3  SGN C   3      19.422  82.944  10.106  1.00 35.79     0.178 C 
HETATM   11  C4  SGN C   3      20.138  82.044   9.085  1.00 36.62     0.186 C 
HETATM   12  C5  SGN C   3      21.263  81.273   9.765  1.00 39.32     0.181 C 
HETATM   13  O5  SGN C   3      22.169  82.186  10.410  1.00 37.58    -0.349 OA
BRANCH   9  14
HETATM   14  N2  SGN C   3      19.704  84.367  12.047  1.00 29.28    -0.289 N 
ATOM     15  H2  SGN C   3      19.524  83.841  12.902  1.00  0.00     0.175 HD
BRANCH  14  16
HETATM   16  S1  SGN C   3      19.198  85.930  11.880  1.00 27.84     0.205 S 
HETATM   17  O1S SGN C   3      17.886  85.824  11.268  1.00 27.65    -0.578 OA
HETATM   18  O2S SGN C   3      20.202  86.574  10.984  1.00 27.72    -0.578 OA
HETATM   19  O3S SGN C   3      19.147  86.583  13.226  1.00 28.50    -0.578 OA
ENDBRANCH  14  16
ENDBRANCH   9  14
BRANCH  10  20
HETATM   20  O3  SGN C   3      18.518  83.820   9.437  1.00 34.89    -0.391 OA
ATOM     21  H3  SGN C   3      18.906  84.685   9.370  1.00  0.00     0.210 HD
ENDBRANCH  10  20
BRANCH  11  22
HETATM   22  O4  SGN C   3      19.197  81.099   8.546  1.00 37.13    -0.348 OA
BRANCH  22  23
HETATM   23  C1  UAP C   4      18.492  81.532   7.433  1.00 39.64     0.294 C 
HETATM   24  C2  UAP C   4      18.357  80.402   6.428  1.00 38.70     0.228 C 
HETATM   25  C3  UAP C   4      17.668  80.906   5.164  1.00 38.51     0.156 C 
HETATM   26  C4  UAP C   4      16.433  81.881   5.444  1.00 38.14     0.077 C 
HETATM   27  C5  UAP C   4      16.309  82.302   6.776  1.00 38.51     0.228 C 
HETATM   28  O5  UAP C   4      17.197  81.926   7.867  1.00 37.46    -0.343 OA
BRANCH  24  29
HETATM   29  O2  UAP C   4      19.682  79.915   6.038  1.00 40.54    -0.244 OA
BRANCH  29  30
HETATM   30  S   UAP C   4      20.067  78.368   6.181  1.00 40.49     0.252 S 
HETATM   31  O1S UAP C   4      19.832  77.997   7.585  1.00 40.89    -0.572 OA
HETATM   32  O2S UAP C   4      21.487  78.249   5.819  1.00 37.88    -0.572 OA
HETATM   33  O3S UAP C   4      19.198  77.618   5.261  1.00 37.47    -0.572 OA
ENDBRANCH  29  30
ENDBRANCH  24  29
BRANCH  25  34
HETATM   34  O3  UAP C   4      17.223  79.792   4.406  1.00 38.58    -0.393 OA
ATOM     35  H3  UAP C   4      16.960  79.099   5.000  1.00  0.00     0.210 HD
ENDBRANCH  25  34
BRANCH  27  36
HETATM   36  C6  UAP C   4      15.198  83.180   7.238  1.00 37.96     0.203 C 
HETATM   37  O6A UAP C   4      15.395  83.905   8.233  1.00 40.05    -0.646 OA
HETATM   38  O6B UAP C   4      14.119  83.148   6.609  1.00 36.71    -0.646 OA
ENDBRANCH  27  36
ENDBRANCH  22  23
ENDBRANCH  11  22
BRANCH  12  39
HETATM   39  C6  SGN C   3      22.081  80.424   8.832  1.00 42.65     0.227 C 
BRANCH  39  40
HETATM   40  O6  SGN C   3      23.161  79.895   9.631  1.00 51.09    -0.254 OA
BRANCH  40  41
HETATM   41  S2  SGN C   3      23.089  78.338   9.976  1.00 54.80     0.251 S 
HETATM   42  O4S SGN C   3      22.956  77.610   8.701  1.00 54.99    -0.572 OA
HETATM   43  O5S SGN C   3      21.894  78.149  10.850  1.00 53.99    -0.572 OA
HETATM   44  O6S SGN C   3      24.329  78.000  10.663  1.00 55.43    -0.572 OA
ENDBRANCH  40  41
ENDBRANCH  39  40
ENDBRANCH  12  39
ENDBRANCH   7   8
ENDBRANCH   4   7
BRANCH   3  45
HETATM   45  O3  IDS C   2      23.052  79.550  13.048  1.00 39.65    -0.390 OA
ATOM     46  H3  IDS C   2      22.122  79.366  12.999  1.00  0.00     0.210 HD
ENDBRANCH   3  45
BRANCH   5  47
HETATM   47  C6  IDS C   2      21.633  84.089  14.459  1.00 36.10     0.206 C 
HETATM   48  O6A IDS C   2      20.630  83.759  15.128  1.00 32.44    -0.646 OA
HETATM   49  O6B IDS C   2      21.841  85.250  14.031  1.00 33.44    -0.646 OA
ENDBRANCH   5  47
BRANCH   2  50
HETATM   50  O2  IDS C   2      25.653  80.536  12.832  1.00 43.59    -0.244 OA
BRANCH  50  51
HETATM   51  S   IDS C   2      26.518  79.516  13.703  1.00 44.11     0.252 S 
HETATM   52  O1S IDS C   2      25.870  78.167  13.562  1.00 44.48    -0.572 OA
HETATM   53  O2S IDS C   2      26.489  80.004  15.098  1.00 44.29    -0.572 OA
HETATM   54  O3S IDS C   2      27.862  79.529  13.155  1.00 44.74    -0.572 OA
ENDBRANCH  50  51
ENDBRANCH   2  50
BRANCH   1  55
HETATM   55  O4  SGN C   1      25.754  83.271  14.267  1.00 44.73    -0.348 OA
BRANCH  55  56
HETATM   56  C4  SGN C   1      26.438  84.524  14.049  1.00 48.25     0.186 C 
HETATM   57  C3  SGN C   1      27.361  84.824  15.237  1.00 48.43     0.178 C 
HETATM   58  C2  SGN C   1      28.203  86.065  14.946  1.00 48.58     0.181 C 
HETATM   59  C1  SGN C   1      28.945  85.942  13.617  1.00 50.40     0.283 C 
HETATM   60  O5  SGN C   1      28.019  85.664  12.559  1.00 50.82    -0.349 OA
HETATM   61  C5  SGN C   1      27.279  84.438  12.764  1.00 51.58     0.181 C 
BRANCH  57  62
HETATM   62  O3  SGN C   1      26.587  85.046  16.406  1.00 46.09    -0.391 OA
ATOM     63  H3  SGN C   1      25.739  84.630  16.305  1.00  0.00     0.210 HD
ENDBRANCH  57  62
BRANCH  58  64
HETATM   64  N2  SGN C   1      29.154  86.293  16.015  1.00 48.56    -0.289 N 
ATOM     65  H2  SGN C   1      30.047  85.803  16.071  1.00  0.00     0.175 HD
BRANCH  64  66
HETATM   66  S1  SGN C   1      28.675  87.411  17.136  1.00 47.67     0.205 S 
HETATM   67  O1S SGN C   1      28.459  86.678  18.403  1.00 47.59    -0.578 OA
HETATM   68  O2S SGN C   1      27.436  87.989  16.605  1.00 48.55    -0.578 OA
HETATM   69  O3S SGN C   1      29.767  88.404  17.237  1.00 47.08    -0.578 OA
ENDBRANCH  64  66
ENDBRANCH  58  64
BRANCH  59  70
HETATM   70  O1  SGN C   1      29.865  84.905  13.685  1.00 51.36    -0.369 OA
ATOM     71  H1  SGN C   1      30.058  84.704  14.592  1.00  0.00     0.212 HD
ENDBRANCH  59  70
BRANCH  61  72
HETATM   72  C6  SGN C   1      26.435  84.233  11.530  1.00 55.48     0.227 C 
BRANCH  72  73
HETATM   73  O6  SGN C   1      27.236  84.472  10.353  1.00 61.59    -0.254 OA
BRANCH  73  74
HETATM   74  S2  SGN C   1      27.407  83.218   9.384  1.00 65.98     0.251 S 
HETATM   75  O4S SGN C   1      28.908  82.948   9.257  1.00 65.09    -0.572 OA
HETATM   76  O5S SGN C   1      26.816  83.594   8.113  1.00 65.58    -0.572 OA
HETATM   77  O6S SGN C   1      26.654  82.021  10.045  1.00 65.84    -0.572 OA
ENDBRANCH  73  74
ENDBRANCH  72  73
ENDBRANCH  61  72
ENDBRANCH  55  56
ENDBRANCH   1  55
TORSDOF 27
ENDMDL
MODEL 69
REMARK VINA RESULT:      -5.2      9.350     13.927
REMARK  27 active torsions:
REMARK  status: ('A' for Active; 'I' for Inactive)
REMARK    1  A    between atoms: C1_1  and  O1_2 
REMARK    2  A    between atoms: S1_5  and  N2_7 
REMARK    3  A    between atoms: C2_6  and  N2_7 
REMARK    4  A    between atoms: S2_10  and  O6_22 
REMARK    5  A    between atoms: C3_11  and  O3_12 
REMARK    6  A    between atoms: C4_15  and  O4_16 
REMARK    7  A    between atoms: O4_16  and  C1_24 
REMARK    8  A    between atoms: C5_18  and  C6_21 
REMARK    9  A    between atoms: C6_21  and  O6_22 
REMARK   10  A    between atoms: C2_26  and  O2_27 
REMARK   11  A    between atoms: O2_27  and  S_40 
REMARK   12  A    between atoms: C3_29  and  O3_30 
REMARK   13  A    between atoms: C4_33  and  O4_34 
REMARK   14  A    between atoms: O4_34  and  C1_41 
REMARK   15  A    between atoms: C5_35  and  C6_37 
REMARK   16  A    between atoms: S1_43  and  N2_45 
REMARK   17  A    between atoms: C2_44  and  N2_45 
REMARK   18  A    between atoms: S2_48  and  O6_60 
REMARK   19  A    between atoms: C3_49  and  O3_50 
REMARK   20  A    between atoms: C4_53  and  O4_54 
REMARK   21  A    between atoms: O4_54  and  C1_62 
REMARK   22  A    between atoms: C5_56  and  C6_59 
REMARK   23  A    between atoms: C6_59  and  O6_60 
REMARK   24  A    between atoms: C2_64  and  O2_65 
REMARK   25  A    between atoms: O2_65  and  S_77 
REMARK   26  A    between atoms: C3_67  and  O3_68 
REMARK   27  A    between atoms: C5_72  and  C6_74 
ROOT
HETATM    1  C1  IDS C   2      21.076  78.403   4.377  1.00 40.81     0.294 C 
HETATM    2  C2  IDS C   2      22.570  78.321   4.052  1.00 40.20     0.231 C 
HETATM    3  C3  IDS C   2      23.409  78.926   5.174  1.00 39.01     0.185 C 
HETATM    4  C4  IDS C   2      23.053  80.411   5.391  1.00 37.65     0.195 C 
HETATM    5  C5  IDS C   2      21.660  80.702   4.819  1.00 35.99     0.257 C 
HETATM    6  O5  IDS C   2      20.769  79.602   5.123  1.00 39.00    -0.340 OA
ENDROOT
BRANCH   4   7
HETATM    7  O4  IDS C   2      23.084  80.722   6.806  1.00 35.98    -0.348 OA
BRANCH   7   8
HETATM    8  C1  SGN C   3      23.203  79.628   7.675  1.00 35.40     0.287 C 
HETATM    9  C2  SGN C   3      22.135  79.711   8.780  1.00 33.71     0.182 C 
HETATM   10  C3  SGN C   3      22.444  80.804   9.809  1.00 35.79     0.178 C 
HETATM   11  C4  SGN C   3      23.910  80.759  10.273  1.00 36.62     0.186 C 
HETATM   12  C5  SGN C   3      24.838  80.677   9.068  1.00 39.32     0.181 C 
HETATM   13  O5  SGN C   3      24.493  79.542   8.254  1.00 37.58    -0.349 OA
BRANCH   9  14
HETATM   14  N2  SGN C   3      20.845  79.983   8.185  1.00 29.28    -0.289 N 
ATOM     15  H2  SGN C   3      20.748  80.649   7.418  1.00  0.00     0.175 HD
BRANCH  14  16
HETATM   16  S1  SGN C   3      19.536  79.178   8.790  1.00 27.84     0.205 S 
HETATM   17  O1S SGN C   3      18.748  80.205   9.445  1.00 27.65    -0.578 OA
HETATM   18  O2S SGN C   3      20.098  78.182   9.750  1.00 27.72    -0.578 OA
HETATM   19  O3S SGN C   3      18.795  78.519   7.669  1.00 28.50    -0.578 OA
ENDBRANCH  14  16
ENDBRANCH   9  14
BRANCH  10  20
HETATM   20  O3  SGN C   3      21.572  80.664  10.928  1.00 34.89    -0.391 OA
ATOM     21  H3  SGN C   3      20.872  80.060  10.710  1.00  0.00     0.210 HD
ENDBRANCH  10  20
BRANCH  11  22
HETATM   22  O4  SGN C   3      24.212  81.962  11.003  1.00 37.13    -0.348 OA
BRANCH  22  23
HETATM   23  C1  UAP C   4      24.541  81.780  12.337  1.00 39.64     0.294 C 
HETATM   24  C2  UAP C   4      23.355  82.129  13.219  1.00 38.70     0.228 C 
HETATM   25  C3  UAP C   4      23.748  82.022  14.690  1.00 38.51     0.156 C 
HETATM   26  C4  UAP C   4      24.650  80.747  15.028  1.00 38.14     0.077 C 
HETATM   27  C5  UAP C   4      25.128  80.052  13.907  1.00 38.51     0.228 C 
HETATM   28  O5  UAP C   4      24.867  80.408  12.519  1.00 37.46    -0.343 OA
BRANCH  24  29
HETATM   29  O2  UAP C   4      22.940  83.512  12.979  1.00 40.54    -0.244 OA
BRANCH  29  30
HETATM   30  S   UAP C   4      21.393  83.925  13.001  1.00 40.49     0.252 S 
HETATM   31  O1S UAP C   4      21.231  85.027  12.042  1.00 40.89    -0.572 OA
HETATM   32  O2S UAP C   4      21.087  84.351  14.374  1.00 37.88    -0.572 OA
HETATM   33  O3S UAP C   4      20.623  82.735  12.607  1.00 37.47    -0.572 OA
ENDBRANCH  29  30
ENDBRANCH  24  29
BRANCH  25  34
HETATM   34  O3  UAP C   4      22.570  81.986  15.480  1.00 38.58    -0.393 OA
ATOM     35  H3  UAP C   4      22.356  82.869  15.756  1.00  0.00     0.210 HD
ENDBRANCH  25  34
BRANCH  27  36
HETATM   36  C6  UAP C   4      25.951  78.816  14.022  1.00 37.96     0.203 C 
HETATM   37  O6A UAP C   4      26.905  78.817  14.824  1.00 40.05    -0.646 OA
HETATM   38  O6B UAP C   4      25.649  77.836  13.308  1.00 36.71    -0.646 OA
ENDBRANCH  27  36
ENDBRANCH  22  23
ENDBRANCH  11  22
BRANCH  12  39
HETATM   39  C6  SGN C   3      26.294  80.543   9.419  1.00 42.65     0.227 C 
BRANCH  39  40
HETATM   40  O6  SGN C   3      26.699  79.251   8.918  1.00 51.09    -0.254 OA
BRANCH  40  41
HETATM   41  S2  SGN C   3      27.875  79.246   7.839  1.00 54.80     0.251 S 
HETATM   42  O4S SGN C   3      27.314  78.736   6.575  1.00 54.99    -0.572 OA
HETATM   43  O5S SGN C   3      28.942  78.348   8.375  1.00 53.99    -0.572 OA
HETATM   44  O6S SGN C   3      28.335  80.623   7.709  1.00 55.43    -0.572 OA
ENDBRANCH  40  41
ENDBRANCH  39  40
ENDBRANCH  12  39
ENDBRANCH   7   8
ENDBRANCH   4   7
BRANCH   3  45
HETATM   45  O3  IDS C   2      24.788  78.802   4.855  1.00 39.65    -0.390 OA
ATOM     46  H3  IDS C   2      24.891  78.748   3.912  1.00  0.00     0.210 HD
ENDBRANCH   3  45
BRANCH   5  47
HETATM   47  C6  IDS C   2      21.010  81.982   5.328  1.00 36.10     0.206 C 
HETATM   48  O6A IDS C   2      20.011  81.869   6.072  1.00 32.44    -0.646 OA
HETATM   49  O6B IDS C   2      21.515  83.080   4.992  1.00 33.44    -0.646 OA
ENDBRANCH   5  47
BRANCH   2  50
HETATM   50  O2  IDS C   2      22.961  76.927   3.891  1.00 43.59    -0.244 OA
BRANCH  50  51
HETATM   51  S   IDS C   2      23.586  76.437   2.507  1.00 44.11     0.252 S 
HETATM   52  O1S IDS C   2      23.047  77.349   1.441  1.00 44.48    -0.572 OA
HETATM   53  O2S IDS C   2      23.159  75.036   2.309  1.00 44.29    -0.572 OA
HETATM   54  O3S IDS C   2      25.028  76.548   2.633  1.00 44.74    -0.572 OA
ENDBRANCH  50  51
ENDBRANCH   2  50
BRANCH   1  55
HETATM   55  O4  SGN C   1      20.346  78.419   3.196  1.00 44.73    -0.348 OA
BRANCH  55  56
HETATM   56  C4  SGN C   1      18.935  78.123   3.278  1.00 48.25     0.186 C 
HETATM   57  C3  SGN C   1      18.141  79.157   2.470  1.00 48.43     0.178 C 
HETATM   58  C2  SGN C   1      16.665  78.765   2.422  1.00 48.58     0.181 C 
HETATM   59  C1  SGN C   1      16.481  77.333   1.923  1.00 50.40     0.283 C 
HETATM   60  O5  SGN C   1      17.249  76.428   2.727  1.00 50.82    -0.349 OA
HETATM   61  C5  SGN C   1      18.665  76.720   2.709  1.00 51.58     0.181 C 
BRANCH  57  62
HETATM   62  O3  SGN C   1      18.266  80.438   3.068  1.00 46.09    -0.391 OA
ATOM     63  H3  SGN C   1      18.742  81.014   2.480  1.00  0.00     0.210 HD
ENDBRANCH  57  62
BRANCH  58  64
HETATM   64  N2  SGN C   1      15.927  79.675   1.570  1.00 48.56    -0.289 N 
ATOM     65  H2  SGN C   1      16.124  79.779   0.574  1.00  0.00     0.175 HD
BRANCH  64  66
HETATM   66  S1  SGN C   1      14.741  80.531   2.342  1.00 47.67     0.205 S 
HETATM   67  O1S SGN C   1      13.781  79.540   2.876  1.00 47.59    -0.578 OA
HETATM   68  O2S SGN C   1      14.145  81.389   1.313  1.00 48.55    -0.578 OA
HETATM   69  O3S SGN C   1      15.406  81.306   3.412  1.00 47.08    -0.578 OA
ENDBRANCH  64  66
ENDBRANCH  58  64
BRANCH  59  70
HETATM   70  O1  SGN C   1      16.910  77.231   0.608  1.00 51.36    -0.369 OA
ATOM     71  H1  SGN C   1      16.279  77.643   0.030  1.00  0.00     0.212 HD
ENDBRANCH  59  70
BRANCH  61  72
HETATM   72  C6  SGN C   1      19.340  75.631   3.504  1.00 55.48     0.227 C 
BRANCH  72  73
HETATM   73  O6  SGN C   1      19.862  74.628   2.605  1.00 61.59    -0.254 OA
BRANCH  73  74
HETATM   74  S2  SGN C   1      19.692  73.123   3.098  1.00 65.98     0.251 S 
HETATM   75  O4S SGN C   1      18.462  72.552   2.389  1.00 65.09    -0.572 OA
HETATM   76  O5S SGN C   1      19.510  73.177   4.537  1.00 65.58    -0.572 OA
HETATM   77  O6S SGN C   1      20.996  72.360   2.706  1.00 65.84    -0.572 OA
ENDBRANCH  73  74
ENDBRANCH  72  73
ENDBRANCH  61  72
ENDBRANCH  55  56
ENDBRANCH   1  55
TORSDOF 27
ENDMDL
MODEL 70
REMARK VINA RESULT:      -5.2      9.635     15.023
REMARK  27 active torsions:
REMARK  status: ('A' for Active; 'I' for Inactive)
REMARK    1  A    between atoms: C1_1  and  O1_2 
REMARK    2  A    between atoms: S1_5  and  N2_7 
REMARK    3  A    between atoms: C2_6  and  N2_7 
REMARK    4  A    between atoms: S2_10  and  O6_22 
REMARK    5  A    between atoms: C3_11  and  O3_12 
REMARK    6  A    between atoms: C4_15  and  O4_16 
REMARK    7  A    between atoms: O4_16  and  C1_24 
REMARK    8  A    between atoms: C5_18  and  C6_21 
REMARK    9  A    between atoms: C6_21  and  O6_22 
REMARK   10  A    between atoms: C2_26  and  O2_27 
REMARK   11  A    between atoms: O2_27  and  S_40 
REMARK   12  A    between atoms: C3_29  and  O3_30 
REMARK   13  A    between atoms: C4_33  and  O4_34 
REMARK   14  A    between atoms: O4_34  and  C1_41 
REMARK   15  A    between atoms: C5_35  and  C6_37 
REMARK   16  A    between atoms: S1_43  and  N2_45 
REMARK   17  A    between atoms: C2_44  and  N2_45 
REMARK   18  A    between atoms: S2_48  and  O6_60 
REMARK   19  A    between atoms: C3_49  and  O3_50 
REMARK   20  A    between atoms: C4_53  and  O4_54 
REMARK   21  A    between atoms: O4_54  and  C1_62 
REMARK   22  A    between atoms: C5_56  and  C6_59 
REMARK   23  A    between atoms: C6_59  and  O6_60 
REMARK   24  A    between atoms: C2_64  and  O2_65 
REMARK   25  A    between atoms: O2_65  and  S_77 
REMARK   26  A    between atoms: C3_67  and  O3_68 
REMARK   27  A    between atoms: C5_72  and  C6_74 
ROOT
HETATM    1  C1  IDS C   2      21.422  81.444  10.180  1.00 40.81     0.294 C 
HETATM    2  C2  IDS C   2      22.182  80.128   9.994  1.00 40.20     0.231 C 
HETATM    3  C3  IDS C   2      21.808  79.460   8.674  1.00 39.01     0.185 C 
HETATM    4  C4  IDS C   2      20.300  79.146   8.621  1.00 37.65     0.195 C 
HETATM    5  C5  IDS C   2      19.548  80.030   9.624  1.00 35.99     0.257 C 
HETATM    6  O5  IDS C   2      20.099  81.368   9.603  1.00 39.00    -0.340 OA
ENDROOT
BRANCH   4   7
HETATM    7  O4  IDS C   2      19.797  79.377   7.281  1.00 35.98    -0.348 OA
BRANCH   7   8
HETATM    8  C1  SGN C   3      20.676  80.015   6.394  1.00 35.40     0.287 C 
HETATM    9  C2  SGN C   3      19.885  80.706   5.269  1.00 33.71     0.182 C 
HETATM   10  C3  SGN C   3      19.299  79.703   4.268  1.00 35.79     0.178 C 
HETATM   11  C4  SGN C   3      20.336  78.653   3.833  1.00 36.62     0.186 C 
HETATM   12  C5  SGN C   3      21.031  78.067   5.055  1.00 39.32     0.181 C 
HETATM   13  O5  SGN C   3      21.622  79.117   5.840  1.00 37.58    -0.349 OA
BRANCH   9  14
HETATM   14  N2  SGN C   3      18.803  81.476   5.843  1.00 29.28    -0.289 N 
ATOM     15  H2  SGN C   3      18.084  81.032   6.414  1.00  0.00     0.175 HD
BRANCH  14  16
HETATM   16  S1  SGN C   3      18.774  83.099   5.539  1.00 27.84     0.205 S 
HETATM   17  O1S SGN C   3      17.367  83.452   5.578  1.00 27.65    -0.578 OA
HETATM   18  O2S SGN C   3      19.371  83.255   4.180  1.00 27.72    -0.578 OA
HETATM   19  O3S SGN C   3      19.569  83.816   6.586  1.00 28.50    -0.578 OA
ENDBRANCH  14  16
ENDBRANCH   9  14
BRANCH  10  20
HETATM   20  O3  SGN C   3      18.805  80.403   3.129  1.00 34.89    -0.391 OA
ATOM     21  H3  SGN C   3      19.402  80.283   2.399  1.00  0.00     0.210 HD
ENDBRANCH  10  20
BRANCH  11  22
HETATM   22  O4  SGN C   3      19.667  77.589   3.133  1.00 37.13    -0.348 OA
BRANCH  22  23
HETATM   23  C1  UAP C   4      20.074  77.392   1.823  1.00 39.64     0.294 C 
HETATM   24  C2  UAP C   4      19.648  76.016   1.345  1.00 38.70     0.228 C 
HETATM   25  C3  UAP C   4      20.182  75.762  -0.062  1.00 38.51     0.156 C 
HETATM   26  C4  UAP C   4      20.061  77.023  -1.038  1.00 38.14     0.077 C 
HETATM   27  C5  UAP C   4      19.698  78.221  -0.405  1.00 38.51     0.228 C 
HETATM   28  O5  UAP C   4      19.443  78.380   1.019  1.00 37.46    -0.343 OA
BRANCH  24  29
HETATM   29  O2  UAP C   4      20.212  74.984   2.217  1.00 40.54    -0.244 OA
BRANCH  29  30
HETATM   30  S   UAP C   4      19.290  73.826   2.827  1.00 40.49     0.252 S 
HETATM   31  O1S UAP C   4      18.892  74.260   4.174  1.00 40.89    -0.572 OA
HETATM   32  O2S UAP C   4      20.111  72.608   2.871  1.00 37.88    -0.572 OA
HETATM   33  O3S UAP C   4      18.131  73.679   1.932  1.00 37.47    -0.572 OA
ENDBRANCH  29  30
ENDBRANCH  24  29
BRANCH  25  34
HETATM   34  O3  UAP C   4      19.486  74.663  -0.628  1.00 38.58    -0.393 OA
ATOM     35  H3  UAP C   4      19.563  74.703  -1.574  1.00  0.00     0.210 HD
ENDBRANCH  25  34
BRANCH  27  36
HETATM   36  C6  UAP C   4      19.498  79.492  -1.155  1.00 37.96     0.203 C 
HETATM   37  O6A UAP C   4      18.920  80.433  -0.574  1.00 40.05    -0.646 OA
HETATM   38  O6B UAP C   4      19.915  79.558  -2.330  1.00 36.71    -0.646 OA
ENDBRANCH  27  36
ENDBRANCH  22  23
ENDBRANCH  11  22
BRANCH  12  39
HETATM   39  C6  SGN C   3      22.125  77.087   4.733  1.00 42.65     0.227 C 
BRANCH  39  40
HETATM   40  O6  SGN C   3      22.996  77.767   3.803  1.00 51.09    -0.254 OA
BRANCH  40  41
HETATM   41  S2  SGN C   3      24.538  77.851   4.208  1.00 54.80     0.251 S 
HETATM   42  O4S SGN C   3      25.273  76.912   3.341  1.00 54.99    -0.572 OA
HETATM   43  O5S SGN C   3      24.622  77.460   5.647  1.00 53.99    -0.572 OA
HETATM   44  O6S SGN C   3      24.958  79.229   3.990  1.00 55.43    -0.572 OA
ENDBRANCH  40  41
ENDBRANCH  39  40
ENDBRANCH  12  39
ENDBRANCH   7   8
ENDBRANCH   4   7
BRANCH   3  45
HETATM   45  O3  IDS C   2      22.557  78.262   8.521  1.00 39.65    -0.390 OA
ATOM     46  H3  IDS C   2      23.444  78.401   8.829  1.00  0.00     0.210 HD
ENDBRANCH   3  45
BRANCH   5  47
HETATM   47  C6  IDS C   2      18.048  80.139   9.386  1.00 36.10     0.206 C 
HETATM   48  O6A IDS C   2      17.437  81.071   9.955  1.00 32.44    -0.646 OA
HETATM   49  O6B IDS C   2      17.503  79.305   8.625  1.00 33.44    -0.646 OA
ENDBRANCH   5  47
BRANCH   2  50
HETATM   50  O2  IDS C   2      23.616  80.386   9.985  1.00 43.59    -0.244 OA
BRANCH  50  51
HETATM   51  S   IDS C   2      24.623  79.266  10.513  1.00 44.11     0.252 S 
HETATM   52  O1S IDS C   2      23.804  78.283  11.301  1.00 44.48    -0.572 OA
HETATM   53  O2S IDS C   2      25.631  79.949  11.351  1.00 44.29    -0.572 OA
HETATM   54  O3S IDS C   2      25.223  78.653   9.342  1.00 44.74    -0.572 OA
ENDBRANCH  50  51
ENDBRANCH   2  50
BRANCH   1  55
HETATM   55  O4  SGN C   1      21.299  81.720  11.534  1.00 44.73    -0.348 OA
BRANCH  55  56
HETATM   56  C4  SGN C   1      21.220  83.107  11.930  1.00 48.25     0.186 C 
HETATM   57  C3  SGN C   1      19.767  83.470  12.261  1.00 48.43     0.178 C 
HETATM   58  C2  SGN C   1      19.696  84.887  12.828  1.00 48.58     0.181 C 
HETATM   59  C1  SGN C   1      20.651  85.069  14.006  1.00 50.40     0.283 C 
HETATM   60  O5  SGN C   1      21.984  84.713  13.619  1.00 50.82    -0.349 OA
HETATM   61  C5  SGN C   1      22.096  83.343  13.171  1.00 51.58     0.181 C 
BRANCH  57  62
HETATM   62  O3  SGN C   1      18.970  83.394  11.089  1.00 46.09    -0.391 OA
ATOM     63  H3  SGN C   1      19.512  83.120  10.358  1.00  0.00     0.210 HD
ENDBRANCH  57  62
BRANCH  58  64
HETATM   64  N2  SGN C   1      18.344  85.198  13.246  1.00 48.56    -0.289 N 
ATOM     65  H2  SGN C   1      17.967  84.910  14.149  1.00  0.00     0.175 HD
BRANCH  64  66
HETATM   66  S1  SGN C   1      17.462  86.056  12.139  1.00 47.67     0.205 S 
HETATM   67  O1S SGN C   1      16.869  87.200  12.864  1.00 47.59    -0.578 OA
HETATM   68  O2S SGN C   1      16.448  85.122  11.640  1.00 48.55    -0.578 OA
HETATM   69  O3S SGN C   1      18.408  86.484  11.085  1.00 47.08    -0.578 OA
ENDBRANCH  64  66
ENDBRANCH  58  64
BRANCH  59  70
HETATM   70  O1  SGN C   1      20.263  84.253  15.059  1.00 51.36    -0.369 OA
ATOM     71  H1  SGN C   1      20.501  84.657  15.885  1.00  0.00     0.212 HD
ENDBRANCH  59  70
BRANCH  61  72
HETATM   72  C6  SGN C   1      23.560  83.094  12.905  1.00 55.48     0.227 C 
BRANCH  72  73
HETATM   73  O6  SGN C   1      23.918  81.775  13.370  1.00 61.59    -0.254 OA
BRANCH  73  74
HETATM   74  S2  SGN C   1      24.494  81.714  14.854  1.00 65.98     0.251 S 
HETATM   75  O4S SGN C   1      25.737  80.821  14.821  1.00 65.09    -0.572 OA
HETATM   76  O5S SGN C   1      23.444  81.148  15.682  1.00 65.58    -0.572 OA
HETATM   77  O6S SGN C   1      24.840  83.177  15.274  1.00 65.84    -0.572 OA
ENDBRANCH  73  74
ENDBRANCH  72  73
ENDBRANCH  61  72
ENDBRANCH  55  56
ENDBRANCH   1  55
TORSDOF 27
ENDMDL
MODEL 71
REMARK VINA RESULT:      -5.2      5.423     12.915
REMARK  27 active torsions:
REMARK  status: ('A' for Active; 'I' for Inactive)
REMARK    1  A    between atoms: C1_1  and  O1_2 
REMARK    2  A    between atoms: S1_5  and  N2_7 
REMARK    3  A    between atoms: C2_6  and  N2_7 
REMARK    4  A    between atoms: S2_10  and  O6_22 
REMARK    5  A    between atoms: C3_11  and  O3_12 
REMARK    6  A    between atoms: C4_15  and  O4_16 
REMARK    7  A    between atoms: O4_16  and  C1_24 
REMARK    8  A    between atoms: C5_18  and  C6_21 
REMARK    9  A    between atoms: C6_21  and  O6_22 
REMARK   10  A    between atoms: C2_26  and  O2_27 
REMARK   11  A    between atoms: O2_27  and  S_40 
REMARK   12  A    between atoms: C3_29  and  O3_30 
REMARK   13  A    between atoms: C4_33  and  O4_34 
REMARK   14  A    between atoms: O4_34  and  C1_41 
REMARK   15  A    between atoms: C5_35  and  C6_37 
REMARK   16  A    between atoms: S1_43  and  N2_45 
REMARK   17  A    between atoms: C2_44  and  N2_45 
REMARK   18  A    between atoms: S2_48  and  O6_60 
REMARK   19  A    between atoms: C3_49  and  O3_50 
REMARK   20  A    between atoms: C4_53  and  O4_54 
REMARK   21  A    between atoms: O4_54  and  C1_62 
REMARK   22  A    between atoms: C5_56  and  C6_59 
REMARK   23  A    between atoms: C6_59  and  O6_60 
REMARK   24  A    between atoms: C2_64  and  O2_65 
REMARK   25  A    between atoms: O2_65  and  S_77 
REMARK   26  A    between atoms: C3_67  and  O3_68 
REMARK   27  A    between atoms: C5_72  and  C6_74 
ROOT
HETATM    1  C1  IDS C   2      26.645  84.887  13.020  1.00 40.81     0.294 C 
HETATM    2  C2  IDS C   2      26.355  86.169  12.237  1.00 40.20     0.231 C 
HETATM    3  C3  IDS C   2      25.023  86.070  11.497  1.00 39.01     0.185 C 
HETATM    4  C4  IDS C   2      25.032  84.897  10.497  1.00 37.65     0.195 C 
HETATM    5  C5  IDS C   2      26.116  83.885  10.890  1.00 35.99     0.257 C 
HETATM    6  O5  IDS C   2      26.135  83.726  12.329  1.00 39.00    -0.340 OA
ENDROOT
BRANCH   4   7
HETATM    7  O4  IDS C   2      23.733  84.253  10.484  1.00 35.98    -0.348 OA
BRANCH   7   8
HETATM    8  C1  SGN C   3      22.816  84.696  11.447  1.00 35.40     0.287 C 
HETATM    9  C2  SGN C   3      22.241  83.496  12.222  1.00 33.71     0.182 C 
HETATM   10  C3  SGN C   3      21.253  82.679  11.381  1.00 35.79     0.178 C 
HETATM   11  C4  SGN C   3      20.238  83.578  10.653  1.00 36.62     0.186 C 
HETATM   12  C5  SGN C   3      20.961  84.713   9.941  1.00 39.32     0.181 C 
HETATM   13  O5  SGN C   3      21.764  85.454  10.877  1.00 37.58    -0.349 OA
BRANCH   9  14
HETATM   14  N2  SGN C   3      23.321  82.631  12.643  1.00 29.28    -0.289 N 
ATOM     15  H2  SGN C   3      24.127  82.463  12.041  1.00  0.00     0.175 HD
BRANCH  14  16
HETATM   16  S1  SGN C   3      23.201  81.924  14.130  1.00 27.84     0.205 S 
HETATM   17  O1S SGN C   3      22.189  82.700  14.822  1.00 27.65    -0.578 OA
HETATM   18  O2S SGN C   3      24.555  82.066  14.742  1.00 27.72    -0.578 OA
HETATM   19  O3S SGN C   3      22.807  80.489  13.969  1.00 28.50    -0.578 OA
ENDBRANCH  14  16
ENDBRANCH   9  14
BRANCH  10  20
HETATM   20  O3  SGN C   3      20.571  81.750  12.220  1.00 34.89    -0.391 OA
ATOM     21  H3  SGN C   3      19.633  81.843  12.098  1.00  0.00     0.210 HD
ENDBRANCH  10  20
BRANCH  11  22
HETATM   22  O4  SGN C   3      19.534  82.796   9.672  1.00 37.13    -0.348 OA
BRANCH  22  23
HETATM   23  C1  UAP C   4      18.155  82.773   9.810  1.00 39.64     0.294 C 
HETATM   24  C2  UAP C   4      17.714  83.811  10.826  1.00 38.70     0.228 C 
HETATM   25  C3  UAP C   4      16.207  83.719  11.049  1.00 38.51     0.156 C 
HETATM   26  C4  UAP C   4      15.366  83.504   9.706  1.00 38.14     0.077 C 
HETATM   27  C5  UAP C   4      16.137  83.210   8.572  1.00 38.51     0.228 C 
HETATM   28  O5  UAP C   4      17.588  83.091   8.545  1.00 37.46    -0.343 OA
BRANCH  24  29
HETATM   29  O2  UAP C   4      18.361  83.560  12.115  1.00 40.54    -0.244 OA
BRANCH  29  30
HETATM   30  S   UAP C   4      18.380  84.678  13.261  1.00 40.49     0.252 S 
HETATM   31  O1S UAP C   4      19.628  84.495  14.016  1.00 40.89    -0.572 OA
HETATM   32  O2S UAP C   4      17.197  84.444  14.102  1.00 37.88    -0.572 OA
HETATM   33  O3S UAP C   4      18.331  85.986  12.589  1.00 37.47    -0.572 OA
ENDBRANCH  29  30
ENDBRANCH  24  29
BRANCH  25  34
HETATM   34  O3  UAP C   4      15.763  84.901  11.696  1.00 38.58    -0.393 OA
ATOM     35  H3  UAP C   4      16.435  85.568  11.616  1.00  0.00     0.210 HD
ENDBRANCH  25  34
BRANCH  27  36
HETATM   36  C6  UAP C   4      15.535  83.017   7.224  1.00 37.96     0.203 C 
HETATM   37  O6A UAP C   4      15.858  82.002   6.575  1.00 40.05    -0.646 OA
HETATM   38  O6B UAP C   4      14.736  83.881   6.803  1.00 36.71    -0.646 OA
ENDBRANCH  27  36
ENDBRANCH  22  23
ENDBRANCH  11  22
BRANCH  12  39
HETATM   39  C6  SGN C   3      20.048  85.699   9.266  1.00 42.65     0.227 C 
BRANCH  39  40
HETATM   40  O6  SGN C   3      20.772  86.174   8.110  1.00 51.09    -0.254 OA
BRANCH  40  41
HETATM   41  S2  SGN C   3      21.029  87.747   8.034  1.00 54.80     0.251 S 
HETATM   42  O4S SGN C   3      20.091  88.300   7.040  1.00 54.99    -0.572 OA
HETATM   43  O5S SGN C   3      22.451  87.927   7.614  1.00 53.99    -0.572 OA
HETATM   44  O6S SGN C   3      20.781  88.282   9.366  1.00 55.43    -0.572 OA
ENDBRANCH  40  41
ENDBRANCH  39  40
ENDBRANCH  12  39
ENDBRANCH   7   8
ENDBRANCH   4   7
BRANCH   3  45
HETATM   45  O3  IDS C   2      24.771  87.288  10.810  1.00 39.65    -0.390 OA
ATOM     46  H3  IDS C   2      23.900  87.599  11.025  1.00  0.00     0.210 HD
ENDBRANCH   3  45
BRANCH   5  47
HETATM   47  C6  IDS C   2      25.962  82.504  10.269  1.00 36.10     0.206 C 
HETATM   48  O6A IDS C   2      25.665  81.556  11.029  1.00 32.44    -0.646 OA
HETATM   49  O6B IDS C   2      26.124  82.386   9.031  1.00 33.44    -0.646 OA
ENDBRANCH   5  47
BRANCH   2  50
HETATM   50  O2  IDS C   2      26.285  87.300  13.153  1.00 43.59    -0.244 OA
BRANCH  50  51
HETATM   51  S   IDS C   2      27.344  88.487  13.024  1.00 44.11     0.252 S 
HETATM   52  O1S IDS C   2      28.688  87.849  12.814  1.00 44.48    -0.572 OA
HETATM   53  O2S IDS C   2      27.284  89.260  14.282  1.00 44.29    -0.572 OA
HETATM   54  O3S IDS C   2      26.942  89.287  11.881  1.00 44.74    -0.572 OA
ENDBRANCH  50  51
ENDBRANCH   2  50
BRANCH   1  55
HETATM   55  O4  SGN C   1      28.016  84.741  13.178  1.00 44.73    -0.348 OA
BRANCH  55  56
HETATM   56  C4  SGN C   1      28.480  83.754  14.125  1.00 48.25     0.186 C 
HETATM   57  C3  SGN C   1      29.510  82.836  13.455  1.00 48.43     0.178 C 
HETATM   58  C2  SGN C   1      30.121  81.891  14.488  1.00 48.58     0.181 C 
HETATM   59  C1  SGN C   1      30.677  82.654  15.689  1.00 50.40     0.283 C 
HETATM   60  O5  SGN C   1      29.658  83.485  16.260  1.00 50.82    -0.349 OA
HETATM   61  C5  SGN C   1      29.134  84.457  15.327  1.00 51.58     0.181 C 
BRANCH  57  62
HETATM   62  O3  SGN C   1      28.887  82.075  12.433  1.00 46.09    -0.391 OA
ATOM     63  H3  SGN C   1      28.968  82.535  11.605  1.00  0.00     0.210 HD
ENDBRANCH  57  62
BRANCH  58  64
HETATM   64  N2  SGN C   1      31.172  81.096  13.888  1.00 48.56    -0.289 N 
ATOM     65  H2  SGN C   1      31.978  81.511  13.419  1.00  0.00     0.175 HD
BRANCH  64  66
HETATM   66  S1  SGN C   1      30.961  79.461  14.022  1.00 47.67     0.205 S 
HETATM   67  O1S SGN C   1      29.742  79.125  13.254  1.00 47.59    -0.578 OA
HETATM   68  O2S SGN C   1      30.807  79.204  15.458  1.00 48.55    -0.578 OA
HETATM   69  O3S SGN C   1      32.175  78.829  13.460  1.00 47.08    -0.578 OA
ENDBRANCH  64  66
ENDBRANCH  58  64
BRANCH  59  70
HETATM   70  O1  SGN C   1      31.733  83.459  15.288  1.00 51.36    -0.369 OA
ATOM     71  H1  SGN C   1      31.473  84.372  15.319  1.00  0.00     0.212 HD
ENDBRANCH  59  70
BRANCH  61  72
HETATM   72  C6  SGN C   1      28.161  85.314  16.098  1.00 55.48     0.227 C 
BRANCH  72  73
HETATM   73  O6  SGN C   1      28.564  86.698  16.013  1.00 61.59    -0.254 OA
BRANCH  73  74
HETATM   74  S2  SGN C   1      28.339  87.551  17.341  1.00 65.98     0.251 S 
HETATM   75  O4S SGN C   1      28.718  86.655  18.522  1.00 65.09    -0.572 OA
HETATM   76  O5S SGN C   1      26.933  87.913  17.366  1.00 65.58    -0.572 OA
HETATM   77  O6S SGN C   1      29.261  88.807  17.243  1.00 65.84    -0.572 OA
ENDBRANCH  73  74
ENDBRANCH  72  73
ENDBRANCH  61  72
ENDBRANCH  55  56
ENDBRANCH   1  55
TORSDOF 27
ENDMDL
MODEL 72
REMARK VINA RESULT:      -5.1      7.253     11.414
REMARK  27 active torsions:
REMARK  status: ('A' for Active; 'I' for Inactive)
REMARK    1  A    between atoms: C1_1  and  O1_2 
REMARK    2  A    between atoms: S1_5  and  N2_7 
REMARK    3  A    between atoms: C2_6  and  N2_7 
REMARK    4  A    between atoms: S2_10  and  O6_22 
REMARK    5  A    between atoms: C3_11  and  O3_12 
REMARK    6  A    between atoms: C4_15  and  O4_16 
REMARK    7  A    between atoms: O4_16  and  C1_24 
REMARK    8  A    between atoms: C5_18  and  C6_21 
REMARK    9  A    between atoms: C6_21  and  O6_22 
REMARK   10  A    between atoms: C2_26  and  O2_27 
REMARK   11  A    between atoms: O2_27  and  S_40 
REMARK   12  A    between atoms: C3_29  and  O3_30 
REMARK   13  A    between atoms: C4_33  and  O4_34 
REMARK   14  A    between atoms: O4_34  and  C1_41 
REMARK   15  A    between atoms: C5_35  and  C6_37 
REMARK   16  A    between atoms: S1_43  and  N2_45 
REMARK   17  A    between atoms: C2_44  and  N2_45 
REMARK   18  A    between atoms: S2_48  and  O6_60 
REMARK   19  A    between atoms: C3_49  and  O3_50 
REMARK   20  A    between atoms: C4_53  and  O4_54 
REMARK   21  A    between atoms: O4_54  and  C1_62 
REMARK   22  A    between atoms: C5_56  and  C6_59 
REMARK   23  A    between atoms: C6_59  and  O6_60 
REMARK   24  A    between atoms: C2_64  and  O2_65 
REMARK   25  A    between atoms: O2_65  and  S_77 
REMARK   26  A    between atoms: C3_67  and  O3_68 
REMARK   27  A    between atoms: C5_72  and  C6_74 
ROOT
HETATM    1  C1  IDS C   2      21.012  79.557   7.530  1.00 40.81     0.294 C 
HETATM    2  C2  IDS C   2      22.244  79.306   6.657  1.00 40.20     0.231 C 
HETATM    3  C3  IDS C   2      23.527  79.666   7.402  1.00 39.01     0.185 C 
HETATM    4  C4  IDS C   2      23.531  81.154   7.807  1.00 37.65     0.195 C 
HETATM    5  C5  IDS C   2      22.095  81.693   7.825  1.00 35.99     0.257 C 
HETATM    6  O5  IDS C   2      21.208  80.699   8.392  1.00 39.00    -0.340 OA
ENDROOT
BRANCH   4   7
HETATM    7  O4  IDS C   2      24.134  81.304   9.117  1.00 35.98    -0.348 OA
BRANCH   7   8
HETATM    8  C1  SGN C   3      24.471  80.115   9.780  1.00 35.40     0.287 C 
HETATM    9  C2  SGN C   3      23.897  80.124  11.208  1.00 33.71     0.182 C 
HETATM   10  C3  SGN C   3      24.656  81.080  12.135  1.00 35.79     0.178 C 
HETATM   11  C4  SGN C   3      26.181  80.914  12.009  1.00 36.62     0.186 C 
HETATM   12  C5  SGN C   3      26.588  80.923  10.541  1.00 39.32     0.181 C 
HETATM   13  O5  SGN C   3      25.871  79.904   9.822  1.00 37.58    -0.349 OA
BRANCH   9  14
HETATM   14  N2  SGN C   3      22.507  80.521  11.167  1.00 29.28    -0.289 N 
ATOM     15  H2  SGN C   3      22.223  81.405  10.744  1.00  0.00     0.175 HD
BRANCH  14  16
HETATM   16  S1  SGN C   3      21.397  79.494  11.830  1.00 27.84     0.205 S 
HETATM   17  O1S SGN C   3      21.582  79.633  13.263  1.00 27.65    -0.578 OA
HETATM   18  O2S SGN C   3      21.768  78.138  11.329  1.00 27.72    -0.578 OA
HETATM   19  O3S SGN C   3      20.023  79.897  11.393  1.00 28.50    -0.578 OA
ENDBRANCH  14  16
ENDBRANCH   9  14
BRANCH  10  20
HETATM   20  O3  SGN C   3      24.250  80.857  13.484  1.00 34.89    -0.391 OA
ATOM     21  H3  SGN C   3      24.462  81.620  14.008  1.00  0.00     0.210 HD
ENDBRANCH  10  20
BRANCH  11  22
HETATM   22  O4  SGN C   3      26.832  82.012  12.672  1.00 37.13    -0.348 OA
BRANCH  22  23
HETATM   23  C1  UAP C   4      28.058  81.715  13.247  1.00 39.64     0.294 C 
HETATM   24  C2  UAP C   4      28.392  82.734  14.321  1.00 38.70     0.228 C 
HETATM   25  C3  UAP C   4      29.784  82.464  14.885  1.00 38.51     0.156 C 
HETATM   26  C4  UAP C   4      30.094  80.914  15.126  1.00 38.14     0.077 C 
HETATM   27  C5  UAP C   4      29.147  80.035  14.582  1.00 38.51     0.228 C 
HETATM   28  O5  UAP C   4      27.957  80.428  13.842  1.00 37.46    -0.343 OA
BRANCH  24  29
HETATM   29  O2  UAP C   4      28.409  84.082  13.748  1.00 40.54    -0.244 OA
BRANCH  29  30
HETATM   30  S   UAP C   4      27.793  85.325  14.547  1.00 40.49     0.252 S 
HETATM   31  O1S UAP C   4      27.207  86.229  13.546  1.00 40.89    -0.572 OA
HETATM   32  O2S UAP C   4      28.906  85.961  15.266  1.00 37.88    -0.572 OA
HETATM   33  O3S UAP C   4      26.776  84.789  15.465  1.00 37.47    -0.572 OA
ENDBRANCH  29  30
ENDBRANCH  24  29
BRANCH  25  34
HETATM   34  O3  UAP C   4      29.930  83.167  16.109  1.00 38.58    -0.393 OA
ATOM     35  H3  UAP C   4      29.120  83.103  16.601  1.00  0.00     0.210 HD
ENDBRANCH  25  34
BRANCH  27  36
HETATM   36  C6  UAP C   4      29.245  78.557  14.738  1.00 37.96     0.203 C 
HETATM   37  O6A UAP C   4      28.586  77.838  13.961  1.00 40.05    -0.646 OA
HETATM   38  O6B UAP C   4      29.980  78.105  15.642  1.00 36.71    -0.646 OA
ENDBRANCH  27  36
ENDBRANCH  22  23
ENDBRANCH  11  22
BRANCH  12  39
HETATM   39  C6  SGN C   3      28.053  80.683  10.306  1.00 42.65     0.227 C 
BRANCH  39  40
HETATM   40  O6  SGN C   3      28.307  81.112   8.950  1.00 51.09    -0.254 OA
BRANCH  40  41
HETATM   41  S2  SGN C   3      28.728  79.974   7.914  1.00 54.80     0.251 S 
HETATM   42  O4S SGN C   3      29.957  80.426   7.237  1.00 54.99    -0.572 OA
HETATM   43  O5S SGN C   3      27.590  79.825   6.958  1.00 53.99    -0.572 OA
HETATM   44  O6S SGN C   3      28.953  78.760   8.688  1.00 55.43    -0.572 OA
ENDBRANCH  40  41
ENDBRANCH  39  40
ENDBRANCH  12  39
ENDBRANCH   7   8
ENDBRANCH   4   7
BRANCH   3  45
HETATM   45  O3  IDS C   2      24.649  79.388   6.575  1.00 39.65    -0.390 OA
ATOM     46  H3  IDS C   2      24.502  78.577   6.103  1.00  0.00     0.210 HD
ENDBRANCH   3  45
BRANCH   5  47
HETATM   47  C6  IDS C   2      21.904  82.988   8.603  1.00 36.10     0.206 C 
HETATM   48  O6A IDS C   2      22.422  84.026   8.137  1.00 32.44    -0.646 OA
HETATM   49  O6B IDS C   2      21.228  82.954   9.659  1.00 33.44    -0.646 OA
ENDBRANCH   5  47
BRANCH   2  50
HETATM   50  O2  IDS C   2      22.309  77.896   6.293  1.00 43.59    -0.244 OA
BRANCH  50  51
HETATM   51  S   IDS C   2      22.956  77.471   4.898  1.00 44.11     0.252 S 
HETATM   52  O1S IDS C   2      23.093  78.725   4.082  1.00 44.48    -0.572 OA
HETATM   53  O2S IDS C   2      22.037  76.497   4.272  1.00 44.29    -0.572 OA
HETATM   54  O3S IDS C   2      24.247  76.876   5.195  1.00 44.74    -0.572 OA
ENDBRANCH  50  51
ENDBRANCH   2  50
BRANCH   1  55
HETATM   55  O4  SGN C   1      19.912  79.799   6.719  1.00 44.73    -0.348 OA
BRANCH  55  56
HETATM   56  C4  SGN C   1      20.000  79.400   5.334  1.00 48.25     0.186 C 
HETATM   57  C3  SGN C   1      19.018  78.254   5.061  1.00 48.43     0.178 C 
HETATM   58  C2  SGN C   1      18.991  77.930   3.568  1.00 48.58     0.181 C 
HETATM   59  C1  SGN C   1      18.720  79.176   2.728  1.00 50.40     0.283 C 
HETATM   60  O5  SGN C   1      19.676  80.197   3.037  1.00 50.82    -0.349 OA
HETATM   61  C5  SGN C   1      19.652  80.593   4.428  1.00 51.58     0.181 C 
BRANCH  57  62
HETATM   62  O3  SGN C   1      19.410  77.098   5.784  1.00 46.09    -0.391 OA
ATOM     63  H3  SGN C   1      20.023  77.348   6.467  1.00  0.00     0.210 HD
ENDBRANCH  57  62
BRANCH  58  64
HETATM   64  N2  SGN C   1      17.987  76.925   3.286  1.00 48.56    -0.289 N 
ATOM     65  H2  SGN C   1      16.987  77.102   3.385  1.00  0.00     0.175 HD
BRANCH  64  66
HETATM   66  S1  SGN C   1      18.593  75.467   2.792  1.00 47.67     0.205 S 
HETATM   67  O1S SGN C   1      19.838  75.754   2.047  1.00 47.59    -0.578 OA
HETATM   68  O2S SGN C   1      17.553  74.881   1.941  1.00 48.55    -0.578 OA
HETATM   69  O3S SGN C   1      18.838  74.673   4.017  1.00 47.08    -0.578 OA
ENDBRANCH  64  66
ENDBRANCH  58  64
BRANCH  59  70
HETATM   70  O1  SGN C   1      17.449  79.662   3.001  1.00 51.36    -0.369 OA
ATOM     71  H1  SGN C   1      16.800  79.145   2.538  1.00  0.00     0.212 HD
ENDBRANCH  59  70
BRANCH  61  72
HETATM   72  C6  SGN C   1      20.627  81.734   4.569  1.00 55.48     0.227 C 
BRANCH  72  73
HETATM   73  O6  SGN C   1      19.979  82.844   5.227  1.00 61.59    -0.254 OA
BRANCH  73  74
HETATM   74  S2  SGN C   1      20.584  84.279   4.888  1.00 65.98     0.251 S 
HETATM   75  O4S SGN C   1      22.107  84.129   4.853  1.00 65.09    -0.572 OA
HETATM   76  O5S SGN C   1      20.154  85.171   5.949  1.00 65.58    -0.572 OA
HETATM   77  O6S SGN C   1      20.009  84.705   3.501  1.00 65.84    -0.572 OA
ENDBRANCH  73  74
ENDBRANCH  72  73
ENDBRANCH  61  72
ENDBRANCH  55  56
ENDBRANCH   1  55
TORSDOF 27
ENDMDL
MODEL 73
REMARK VINA RESULT:      -5.1      5.844     12.718
REMARK  27 active torsions:
REMARK  status: ('A' for Active; 'I' for Inactive)
REMARK    1  A    between atoms: C1_1  and  O1_2 
REMARK    2  A    between atoms: S1_5  and  N2_7 
REMARK    3  A    between atoms: C2_6  and  N2_7 
REMARK    4  A    between atoms: S2_10  and  O6_22 
REMARK    5  A    between atoms: C3_11  and  O3_12 
REMARK    6  A    between atoms: C4_15  and  O4_16 
REMARK    7  A    between atoms: O4_16  and  C1_24 
REMARK    8  A    between atoms: C5_18  and  C6_21 
REMARK    9  A    between atoms: C6_21  and  O6_22 
REMARK   10  A    between atoms: C2_26  and  O2_27 
REMARK   11  A    between atoms: O2_27  and  S_40 
REMARK   12  A    between atoms: C3_29  and  O3_30 
REMARK   13  A    between atoms: C4_33  and  O4_34 
REMARK   14  A    between atoms: O4_34  and  C1_41 
REMARK   15  A    between atoms: C5_35  and  C6_37 
REMARK   16  A    between atoms: S1_43  and  N2_45 
REMARK   17  A    between atoms: C2_44  and  N2_45 
REMARK   18  A    between atoms: S2_48  and  O6_60 
REMARK   19  A    between atoms: C3_49  and  O3_50 
REMARK   20  A    between atoms: C4_53  and  O4_54 
REMARK   21  A    between atoms: O4_54  and  C1_62 
REMARK   22  A    between atoms: C5_56  and  C6_59 
REMARK   23  A    between atoms: C6_59  and  O6_60 
REMARK   24  A    between atoms: C2_64  and  O2_65 
REMARK   25  A    between atoms: O2_65  and  S_77 
REMARK   26  A    between atoms: C3_67  and  O3_68 
REMARK   27  A    between atoms: C5_72  and  C6_74 
ROOT
HETATM    1  C1  IDS C   2      26.738  82.420  12.969  1.00 40.81     0.294 C 
HETATM    2  C2  IDS C   2      26.355  80.994  13.371  1.00 40.20     0.231 C 
HETATM    3  C3  IDS C   2      25.152  80.503  12.571  1.00 39.01     0.185 C 
HETATM    4  C4  IDS C   2      23.925  81.407  12.808  1.00 37.65     0.195 C 
HETATM    5  C5  IDS C   2      24.379  82.777  13.326  1.00 35.99     0.257 C 
HETATM    6  O5  IDS C   2      25.570  83.195  12.618  1.00 39.00    -0.340 OA
ENDROOT
BRANCH   4   7
HETATM    7  O4  IDS C   2      23.185  81.565  11.571  1.00 35.98    -0.348 OA
BRANCH   7   8
HETATM    8  C1  SGN C   3      22.225  80.579  11.297  1.00 35.40     0.287 C 
HETATM    9  C2  SGN C   3      22.172  80.299   9.785  1.00 33.71     0.182 C 
HETATM   10  C3  SGN C   3      21.504  81.436   9.004  1.00 35.79     0.178 C 
HETATM   11  C4  SGN C   3      20.191  81.893   9.664  1.00 36.62     0.186 C 
HETATM   12  C5  SGN C   3      20.409  82.126  11.154  1.00 39.32     0.181 C 
HETATM   13  O5  SGN C   3      20.939  80.938  11.769  1.00 37.58    -0.349 OA
BRANCH   9  14
HETATM   14  N2  SGN C   3      23.515  80.115   9.280  1.00 29.28    -0.289 N 
ATOM     15  H2  SGN C   3      24.173  80.893   9.234  1.00  0.00     0.175 HD
BRANCH  14  16
HETATM   16  S1  SGN C   3      23.946  78.600   8.781  1.00 27.84     0.205 S 
HETATM   17  O1S SGN C   3      25.332  78.732   8.373  1.00 27.65    -0.578 OA
HETATM   18  O2S SGN C   3      23.035  78.291   7.639  1.00 27.72    -0.578 OA
HETATM   19  O3S SGN C   3      23.774  77.636   9.912  1.00 28.50    -0.578 OA
ENDBRANCH  14  16
ENDBRANCH   9  14
BRANCH  10  20
HETATM   20  O3  SGN C   3      21.256  81.013   7.665  1.00 34.89    -0.391 OA
ATOM     21  H3  SGN C   3      22.057  80.666   7.289  1.00  0.00     0.210 HD
ENDBRANCH  10  20
BRANCH  11  22
HETATM   22  O4  SGN C   3      19.766  83.129   9.065  1.00 37.13    -0.348 OA
BRANCH  22  23
HETATM   23  C1  UAP C   4      18.460  83.145   8.601  1.00 39.64     0.294 C 
HETATM   24  C2  UAP C   4      18.081  84.546   8.155  1.00 38.70     0.228 C 
HETATM   25  C3  UAP C   4      16.614  84.583   7.736  1.00 38.51     0.156 C 
HETATM   26  C4  UAP C   4      16.154  83.316   6.877  1.00 38.14     0.077 C 
HETATM   27  C5  UAP C   4      17.086  82.270   6.828  1.00 38.51     0.228 C 
HETATM   28  O5  UAP C   4      18.385  82.266   7.486  1.00 37.46    -0.343 OA
BRANCH  24  29
HETATM   29  O2  UAP C   4      18.241  85.488   9.264  1.00 40.54    -0.244 OA
BRANCH  29  30
HETATM   30  S   UAP C   4      19.130  86.809   9.103  1.00 40.49     0.252 S 
HETATM   31  O1S UAP C   4      18.844  87.358   7.769  1.00 40.89    -0.572 OA
HETATM   32  O2S UAP C   4      20.535  86.393   9.229  1.00 37.88    -0.572 OA
HETATM   33  O3S UAP C   4      18.730  87.733  10.175  1.00 37.47    -0.572 OA
ENDBRANCH  29  30
ENDBRANCH  24  29
BRANCH  25  34
HETATM   34  O3  UAP C   4      16.377  85.767   6.990  1.00 38.58    -0.393 OA
ATOM     35  H3  UAP C   4      15.908  86.387   7.535  1.00  0.00     0.210 HD
ENDBRANCH  25  34
BRANCH  27  36
HETATM   36  C6  UAP C   4      16.853  81.025   6.045  1.00 37.96     0.203 C 
HETATM   37  O6A UAP C   4      15.690  80.775   5.670  1.00 40.05    -0.646 OA
HETATM   38  O6B UAP C   4      17.831  80.288   5.801  1.00 36.71    -0.646 OA
ENDBRANCH  27  36
ENDBRANCH  22  23
ENDBRANCH  11  22
BRANCH  12  39
HETATM   39  C6  SGN C   3      19.162  82.495  11.909  1.00 42.65     0.227 C 
BRANCH  39  40
HETATM   40  O6  SGN C   3      19.613  82.998  13.185  1.00 51.09    -0.254 OA
BRANCH  40  41
HETATM   41  S2  SGN C   3      18.864  84.293  13.741  1.00 54.80     0.251 S 
HETATM   42  O4S SGN C   3      19.433  84.598  15.067  1.00 54.99    -0.572 OA
HETATM   43  O5S SGN C   3      17.415  83.942  13.828  1.00 53.99    -0.572 OA
HETATM   44  O6S SGN C   3      19.110  85.367  12.788  1.00 55.43    -0.572 OA
ENDBRANCH  40  41
ENDBRANCH  39  40
ENDBRANCH  12  39
ENDBRANCH   7   8
ENDBRANCH   4   7
BRANCH   3  45
HETATM   45  O3  IDS C   2      24.846  79.167  12.946  1.00 39.65    -0.390 OA
ATOM     46  H3  IDS C   2      25.272  78.565  12.347  1.00  0.00     0.210 HD
ENDBRANCH   3  45
BRANCH   5  47
HETATM   47  C6  IDS C   2      23.346  83.888  13.198  1.00 36.10     0.206 C 
HETATM   48  O6A IDS C   2      22.392  83.889  14.007  1.00 32.44    -0.646 OA
HETATM   49  O6B IDS C   2      23.508  84.753  12.304  1.00 33.44    -0.646 OA
ENDBRANCH   5  47
BRANCH   2  50
HETATM   50  O2  IDS C   2      27.472  80.094  13.113  1.00 43.59    -0.244 OA
BRANCH  50  51
HETATM   51  S   IDS C   2      28.046  79.191  14.296  1.00 44.11     0.252 S 
HETATM   52  O1S IDS C   2      29.494  79.559  14.461  1.00 44.48    -0.572 OA
HETATM   53  O2S IDS C   2      27.874  77.780  13.888  1.00 44.29    -0.572 OA
HETATM   54  O3S IDS C   2      27.270  79.506  15.482  1.00 44.74    -0.572 OA
ENDBRANCH  50  51
ENDBRANCH   2  50
BRANCH   1  55
HETATM   55  O4  SGN C   1      27.380  83.043  14.029  1.00 44.73    -0.348 OA
BRANCH  55  56
HETATM   56  C4  SGN C   1      28.246  84.160  13.726  1.00 48.25     0.186 C 
HETATM   57  C3  SGN C   1      27.507  85.477  13.993  1.00 48.43     0.178 C 
HETATM   58  C2  SGN C   1      28.462  86.657  13.825  1.00 48.58     0.181 C 
HETATM   59  C1  SGN C   1      29.723  86.485  14.670  1.00 50.40     0.283 C 
HETATM   60  O5  SGN C   1      30.356  85.237  14.363  1.00 50.82    -0.349 OA
HETATM   61  C5  SGN C   1      29.503  84.095  14.610  1.00 51.58     0.181 C 
BRANCH  57  62
HETATM   62  O3  SGN C   1      26.425  85.616  13.086  1.00 46.09    -0.391 OA
ATOM     63  H3  SGN C   1      26.044  86.482  13.183  1.00  0.00     0.210 HD
ENDBRANCH  57  62
BRANCH  58  64
HETATM   64  N2  SGN C   1      27.802  87.896  14.182  1.00 48.56    -0.289 N 
ATOM     65  H2  SGN C   1      27.425  88.071  15.113  1.00  0.00     0.175 HD
BRANCH  64  66
HETATM   66  S1  SGN C   1      27.710  89.004  12.956  1.00 47.67     0.205 S 
HETATM   67  O1S SGN C   1      26.690  89.997  13.357  1.00 47.59    -0.578 OA
HETATM   68  O2S SGN C   1      27.314  88.241  11.769  1.00 48.55    -0.578 OA
HETATM   69  O3S SGN C   1      29.057  89.601  12.823  1.00 47.08    -0.578 OA
ENDBRANCH  64  66
ENDBRANCH  58  64
BRANCH  59  70
HETATM   70  O1  SGN C   1      29.392  86.495  16.017  1.00 51.36    -0.369 OA
ATOM     71  H1  SGN C   1      29.326  87.391  16.327  1.00  0.00     0.212 HD
ENDBRANCH  59  70
BRANCH  61  72
HETATM   72  C6  SGN C   1      30.338  82.868  14.345  1.00 55.48     0.227 C 
BRANCH  72  73
HETATM   73  O6  SGN C   1      31.730  83.171  14.580  1.00 61.59    -0.254 OA
BRANCH  73  74
HETATM   74  S2  SGN C   1      32.727  82.718  13.421  1.00 65.98     0.251 S 
HETATM   75  O4S SGN C   1      32.196  83.309  12.113  1.00 65.09    -0.572 OA
HETATM   76  O5S SGN C   1      32.709  81.266  13.404  1.00 65.58    -0.572 OA
HETATM   77  O6S SGN C   1      34.138  83.277  13.783  1.00 65.84    -0.572 OA
ENDBRANCH  73  74
ENDBRANCH  72  73
ENDBRANCH  61  72
ENDBRANCH  55  56
ENDBRANCH   1  55
TORSDOF 27
ENDMDL
MODEL 74
REMARK VINA RESULT:      -5.1      6.664     14.040
REMARK  27 active torsions:
REMARK  status: ('A' for Active; 'I' for Inactive)
REMARK    1  A    between atoms: C1_1  and  O1_2 
REMARK    2  A    between atoms: S1_5  and  N2_7 
REMARK    3  A    between atoms: C2_6  and  N2_7 
REMARK    4  A    between atoms: S2_10  and  O6_22 
REMARK    5  A    between atoms: C3_11  and  O3_12 
REMARK    6  A    between atoms: C4_15  and  O4_16 
REMARK    7  A    between atoms: O4_16  and  C1_24 
REMARK    8  A    between atoms: C5_18  and  C6_21 
REMARK    9  A    between atoms: C6_21  and  O6_22 
REMARK   10  A    between atoms: C2_26  and  O2_27 
REMARK   11  A    between atoms: O2_27  and  S_40 
REMARK   12  A    between atoms: C3_29  and  O3_30 
REMARK   13  A    between atoms: C4_33  and  O4_34 
REMARK   14  A    between atoms: O4_34  and  C1_41 
REMARK   15  A    between atoms: C5_35  and  C6_37 
REMARK   16  A    between atoms: S1_43  and  N2_45 
REMARK   17  A    between atoms: C2_44  and  N2_45 
REMARK   18  A    between atoms: S2_48  and  O6_60 
REMARK   19  A    between atoms: C3_49  and  O3_50 
REMARK   20  A    between atoms: C4_53  and  O4_54 
REMARK   21  A    between atoms: O4_54  and  C1_62 
REMARK   22  A    between atoms: C5_56  and  C6_59 
REMARK   23  A    between atoms: C6_59  and  O6_60 
REMARK   24  A    between atoms: C2_64  and  O2_65 
REMARK   25  A    between atoms: O2_65  and  S_77 
REMARK   26  A    between atoms: C3_67  and  O3_68 
REMARK   27  A    between atoms: C5_72  and  C6_74 
ROOT
HETATM    1  C1  IDS C   2      25.132  81.839  12.571  1.00 40.81     0.294 C 
HETATM    2  C2  IDS C   2      25.230  83.367  12.592  1.00 40.20     0.231 C 
HETATM    3  C3  IDS C   2      23.945  84.005  12.072  1.00 39.01     0.185 C 
HETATM    4  C4  IDS C   2      23.659  83.570  10.620  1.00 37.65     0.195 C 
HETATM    5  C5  IDS C   2      24.411  82.269  10.310  1.00 35.99     0.257 C 
HETATM    6  O5  IDS C   2      24.342  81.382  11.452  1.00 39.00    -0.340 OA
ENDROOT
BRANCH   4   7
HETATM    7  O4  IDS C   2      22.234  83.376  10.437  1.00 35.98    -0.348 OA
BRANCH   7   8
HETATM    8  C1  SGN C   3      21.488  83.153  11.603  1.00 35.40     0.287 C 
HETATM    9  C2  SGN C   3      20.603  81.904  11.434  1.00 33.71     0.182 C 
HETATM   10  C3  SGN C   3      19.418  82.153  10.495  1.00 35.79     0.178 C 
HETATM   11  C4  SGN C   3      18.692  83.470  10.820  1.00 36.62     0.186 C 
HETATM   12  C5  SGN C   3      19.701  84.603  10.957  1.00 39.32     0.181 C 
HETATM   13  O5  SGN C   3      20.688  84.270  11.949  1.00 37.58    -0.349 OA
BRANCH   9  14
HETATM   14  N2  SGN C   3      21.398  80.818  10.904  1.00 29.28    -0.289 N 
ATOM     15  H2  SGN C   3      22.142  80.990  10.228  1.00  0.00     0.175 HD
BRANCH  14  16
HETATM   16  S1  SGN C   3      21.056  79.291  11.431  1.00 27.84     0.205 S 
HETATM   17  O1S SGN C   3      22.353  78.702  11.708  1.00 27.65    -0.578 OA
HETATM   18  O2S SGN C   3      20.354  78.630  10.291  1.00 27.72    -0.578 OA
HETATM   19  O3S SGN C   3      20.193  79.367  12.652  1.00 28.50    -0.578 OA
ENDBRANCH  14  16
ENDBRANCH   9  14
BRANCH  10  20
HETATM   20  O3  SGN C   3      18.507  81.059  10.579  1.00 34.89    -0.391 OA
ATOM     21  H3  SGN C   3      18.368  80.832  11.491  1.00  0.00     0.210 HD
ENDBRANCH  10  20
BRANCH  11  22
HETATM   22  O4  SGN C   3      17.788  83.789   9.748  1.00 37.13    -0.348 OA
BRANCH  22  23
HETATM   23  C1  UAP C   4      16.474  84.017  10.128  1.00 39.64     0.294 C 
HETATM   24  C2  UAP C   4      15.557  83.918   8.922  1.00 38.70     0.228 C 
HETATM   25  C3  UAP C   4      14.126  84.265   9.323  1.00 38.51     0.156 C 
HETATM   26  C4  UAP C   4      13.677  83.642  10.724  1.00 38.14     0.077 C 
HETATM   27  C5  UAP C   4      14.717  83.068  11.471  1.00 38.51     0.228 C 
HETATM   28  O5  UAP C   4      16.115  83.014  11.068  1.00 37.46    -0.343 OA
BRANCH  24  29
HETATM   29  O2  UAP C   4      15.968  84.880   7.898  1.00 40.54    -0.244 OA
BRANCH  29  30
HETATM   30  S   UAP C   4      15.750  84.573   6.342  1.00 40.49     0.252 S 
HETATM   31  O1S UAP C   4      15.511  83.127   6.221  1.00 40.89    -0.572 OA
HETATM   32  O2S UAP C   4      16.982  84.980   5.652  1.00 37.88    -0.572 OA
HETATM   33  O3S UAP C   4      14.586  85.361   5.904  1.00 37.47    -0.572 OA
ENDBRANCH  29  30
ENDBRANCH  24  29
BRANCH  25  34
HETATM   34  O3  UAP C   4      13.242  83.820   8.307  1.00 38.58    -0.393 OA
ATOM     35  H3  UAP C   4      12.555  83.297   8.703  1.00  0.00     0.210 HD
ENDBRANCH  25  34
BRANCH  27  36
HETATM   36  C6  UAP C   4      14.486  82.403  12.784  1.00 37.96     0.203 C 
HETATM   37  O6A UAP C   4      13.988  81.260  12.785  1.00 40.05    -0.646 OA
HETATM   38  O6B UAP C   4      14.801  83.020  13.823  1.00 36.71    -0.646 OA
ENDBRANCH  27  36
ENDBRANCH  22  23
ENDBRANCH  11  22
BRANCH  12  39
HETATM   39  C6  SGN C   3      19.098  85.921  11.359  1.00 42.65     0.227 C 
BRANCH  39  40
HETATM   40  O6  SGN C   3      19.873  86.929  10.675  1.00 51.09    -0.254 OA
BRANCH  40  41
HETATM   41  S2  SGN C   3      19.064  87.911   9.711  1.00 54.80     0.251 S 
HETATM   42  O4S SGN C   3      17.644  87.840  10.100  1.00 54.99    -0.572 OA
HETATM   43  O5S SGN C   3      19.282  87.418   8.319  1.00 53.99    -0.572 OA
HETATM   44  O6S SGN C   3      19.612  89.246   9.911  1.00 55.43    -0.572 OA
ENDBRANCH  40  41
ENDBRANCH  39  40
ENDBRANCH  12  39
ENDBRANCH   7   8
ENDBRANCH   4   7
BRANCH   3  45
HETATM   45  O3  IDS C   2      24.058  85.420  12.137  1.00 39.65    -0.390 OA
ATOM     46  H3  IDS C   2      23.512  85.813  11.468  1.00  0.00     0.210 HD
ENDBRANCH   3  45
BRANCH   5  47
HETATM   47  C6  IDS C   2      23.900  81.506   9.095  1.00 36.10     0.206 C 
HETATM   48  O6A IDS C   2      23.703  80.277   9.222  1.00 32.44    -0.646 OA
HETATM   49  O6B IDS C   2      23.688  82.145   8.036  1.00 33.44    -0.646 OA
ENDBRANCH   5  47
BRANCH   2  50
HETATM   50  O2  IDS C   2      25.447  83.826  13.958  1.00 43.59    -0.244 OA
BRANCH  50  51
HETATM   51  S   IDS C   2      24.478  83.324  15.122  1.00 44.11     0.252 S 
HETATM   52  O1S IDS C   2      24.875  84.066  16.367  1.00 44.48    -0.572 OA
HETATM   53  O2S IDS C   2      24.678  81.866  15.255  1.00 44.29    -0.572 OA
HETATM   54  O3S IDS C   2      23.123  83.646  14.711  1.00 44.74    -0.572 OA
ENDBRANCH  50  51
ENDBRANCH   2  50
BRANCH   1  55
HETATM   55  O4  SGN C   1      26.405  81.296  12.466  1.00 44.73    -0.348 OA
BRANCH  55  56
HETATM   56  C4  SGN C   1      26.981  80.705  13.651  1.00 48.25     0.186 C 
HETATM   57  C3  SGN C   1      26.526  79.246  13.778  1.00 48.43     0.178 C 
HETATM   58  C2  SGN C   1      27.252  78.570  14.940  1.00 48.58     0.181 C 
HETATM   59  C1  SGN C   1      28.767  78.726  14.823  1.00 50.40     0.283 C 
HETATM   60  O5  SGN C   1      29.113  80.112  14.711  1.00 50.82    -0.349 OA
HETATM   61  C5  SGN C   1      28.516  80.752  13.559  1.00 51.58     0.181 C 
BRANCH  57  62
HETATM   62  O3  SGN C   1      25.127  79.194  14.007  1.00 46.09    -0.391 OA
ATOM     63  H3  SGN C   1      24.670  79.472  13.221  1.00  0.00     0.210 HD
ENDBRANCH  57  62
BRANCH  58  64
HETATM   64  N2  SGN C   1      26.911  77.163  14.999  1.00 48.56    -0.289 N 
ATOM     65  H2  SGN C   1      27.167  76.503  14.265  1.00  0.00     0.175 HD
BRANCH  64  66
HETATM   66  S1  SGN C   1      26.074  76.715  16.353  1.00 47.67     0.205 S 
HETATM   67  O1S SGN C   1      25.200  77.854  16.709  1.00 47.59    -0.578 OA
HETATM   68  O2S SGN C   1      27.093  76.451  17.373  1.00 48.55    -0.578 OA
HETATM   69  O3S SGN C   1      25.304  75.504  15.994  1.00 47.08    -0.578 OA
ENDBRANCH  64  66
ENDBRANCH  58  64
BRANCH  59  70
HETATM   70  O1  SGN C   1      29.224  78.062  13.694  1.00 51.36    -0.369 OA
ATOM     71  H1  SGN C   1      29.613  77.232  13.942  1.00  0.00     0.212 HD
ENDBRANCH  59  70
BRANCH  61  72
HETATM   72  C6  SGN C   1      29.054  82.160  13.521  1.00 55.48     0.227 C 
BRANCH  72  73
HETATM   73  O6  SGN C   1      28.404  82.953  14.537  1.00 61.59    -0.254 OA
BRANCH  73  74
HETATM   74  S2  SGN C   1      29.058  84.382  14.803  1.00 65.98     0.251 S 
HETATM   75  O4S SGN C   1      30.563  84.240  14.563  1.00 65.09    -0.572 OA
HETATM   76  O5S SGN C   1      28.761  84.723  16.182  1.00 65.58    -0.572 OA
HETATM   77  O6S SGN C   1      28.400  85.382  13.801  1.00 65.84    -0.572 OA
ENDBRANCH  73  74
ENDBRANCH  72  73
ENDBRANCH  61  72
ENDBRANCH  55  56
ENDBRANCH   1  55
TORSDOF 27
ENDMDL
MODEL 75
REMARK VINA RESULT:      -5.1      5.168     12.140
REMARK  27 active torsions:
REMARK  status: ('A' for Active; 'I' for Inactive)
REMARK    1  A    between atoms: C1_1  and  O1_2 
REMARK    2  A    between atoms: S1_5  and  N2_7 
REMARK    3  A    between atoms: C2_6  and  N2_7 
REMARK    4  A    between atoms: S2_10  and  O6_22 
REMARK    5  A    between atoms: C3_11  and  O3_12 
REMARK    6  A    between atoms: C4_15  and  O4_16 
REMARK    7  A    between atoms: O4_16  and  C1_24 
REMARK    8  A    between atoms: C5_18  and  C6_21 
REMARK    9  A    between atoms: C6_21  and  O6_22 
REMARK   10  A    between atoms: C2_26  and  O2_27 
REMARK   11  A    between atoms: O2_27  and  S_40 
REMARK   12  A    between atoms: C3_29  and  O3_30 
REMARK   13  A    between atoms: C4_33  and  O4_34 
REMARK   14  A    between atoms: O4_34  and  C1_41 
REMARK   15  A    between atoms: C5_35  and  C6_37 
REMARK   16  A    between atoms: S1_43  and  N2_45 
REMARK   17  A    between atoms: C2_44  and  N2_45 
REMARK   18  A    between atoms: S2_48  and  O6_60 
REMARK   19  A    between atoms: C3_49  and  O3_50 
REMARK   20  A    between atoms: C4_53  and  O4_54 
REMARK   21  A    between atoms: O4_54  and  C1_62 
REMARK   22  A    between atoms: C5_56  and  C6_59 
REMARK   23  A    between atoms: C6_59  and  O6_60 
REMARK   24  A    between atoms: C2_64  and  O2_65 
REMARK   25  A    between atoms: O2_65  and  S_77 
REMARK   26  A    between atoms: C3_67  and  O3_68 
REMARK   27  A    between atoms: C5_72  and  C6_74 
ROOT
HETATM    1  C1  IDS C   2      27.466  80.610  13.518  1.00 40.81     0.294 C 
HETATM    2  C2  IDS C   2      26.860  79.352  14.144  1.00 40.20     0.231 C 
HETATM    3  C3  IDS C   2      25.444  79.110  13.628  1.00 39.01     0.185 C 
HETATM    4  C4  IDS C   2      24.522  80.298  13.967  1.00 37.65     0.195 C 
HETATM    5  C5  IDS C   2      25.364  81.552  14.236  1.00 35.99     0.257 C 
HETATM    6  O5  IDS C   2      26.456  81.617  13.288  1.00 39.00    -0.340 OA
ENDROOT
BRANCH   4   7
HETATM    7  O4  IDS C   2      23.608  80.540  12.868  1.00 35.98    -0.348 OA
BRANCH   7   8
HETATM    8  C1  SGN C   3      22.263  80.222  13.103  1.00 35.40     0.287 C 
HETATM    9  C2  SGN C   3      21.672  79.489  11.885  1.00 33.71     0.182 C 
HETATM   10  C3  SGN C   3      21.439  80.428  10.696  1.00 35.79     0.178 C 
HETATM   11  C4  SGN C   3      20.738  81.730  11.121  1.00 36.62     0.186 C 
HETATM   12  C5  SGN C   3      21.438  82.329  12.334  1.00 39.32     0.181 C 
HETATM   13  O5  SGN C   3      21.485  81.367  13.403  1.00 37.58    -0.349 OA
BRANCH   9  14
HETATM   14  N2  SGN C   3      22.571  78.432  11.475  1.00 29.28    -0.289 N 
ATOM     15  H2  SGN C   3      22.658  77.573  12.017  1.00  0.00     0.175 HD
BRANCH  14  16
HETATM   16  S1  SGN C   3      23.451  78.667  10.097  1.00 27.84     0.205 S 
HETATM   17  O1S SGN C   3      24.781  78.193  10.429  1.00 27.65    -0.578 OA
HETATM   18  O2S SGN C   3      23.408  80.139   9.850  1.00 27.72    -0.578 OA
HETATM   19  O3S SGN C   3      22.834  77.893   8.974  1.00 28.50    -0.578 OA
ENDBRANCH  14  16
ENDBRANCH   9  14
BRANCH  10  20
HETATM   20  O3  SGN C   3      20.666  79.757   9.704  1.00 34.89    -0.391 OA
ATOM     21  H3  SGN C   3      20.627  80.290   8.919  1.00  0.00     0.210 HD
ENDBRANCH  10  20
BRANCH  11  22
HETATM   22  O4  SGN C   3      20.805  82.677  10.040  1.00 37.13    -0.348 OA
BRANCH  22  23
HETATM   23  C1  UAP C   4      19.596  82.965   9.427  1.00 39.64     0.294 C 
HETATM   24  C2  UAP C   4      19.607  84.385   8.890  1.00 38.70     0.228 C 
HETATM   25  C3  UAP C   4      18.242  84.733   8.303  1.00 38.51     0.156 C 
HETATM   26  C4  UAP C   4      17.588  83.555   7.442  1.00 38.14     0.077 C 
HETATM   27  C5  UAP C   4      18.248  82.322   7.539  1.00 38.51     0.228 C 
HETATM   28  O5  UAP C   4      19.433  82.059   8.343  1.00 37.46    -0.343 OA
BRANCH  24  29
HETATM   29  O2  UAP C   4      19.867  85.331   9.977  1.00 40.54    -0.244 OA
BRANCH  29  30
HETATM   30  S   UAP C   4      21.070  86.383   9.883  1.00 40.49     0.252 S 
HETATM   31  O1S UAP C   4      21.077  86.905   8.509  1.00 40.89    -0.572 OA
HETATM   32  O2S UAP C   4      22.304  85.645  10.190  1.00 37.88    -0.572 OA
HETATM   33  O3S UAP C   4      20.798  87.439  10.871  1.00 37.47    -0.572 OA
ENDBRANCH  29  30
ENDBRANCH  24  29
BRANCH  25  34
HETATM   34  O3  UAP C   4      18.370  85.891   7.493  1.00 38.58    -0.393 OA
ATOM     35  H3  UAP C   4      17.515  86.124   7.150  1.00  0.00     0.210 HD
ENDBRANCH  25  34
BRANCH  27  36
HETATM   36  C6  UAP C   4      17.810  81.118   6.779  1.00 37.96     0.203 C 
HETATM   37  O6A UAP C   4      17.165  81.290   5.725  1.00 40.05    -0.646 OA
HETATM   38  O6B UAP C   4      18.107  79.992   7.232  1.00 36.71    -0.646 OA
ENDBRANCH  27  36
ENDBRANCH  22  23
ENDBRANCH  11  22
BRANCH  12  39
HETATM   39  C6  SGN C   3      20.776  83.564  12.880  1.00 42.65     0.227 C 
BRANCH  39  40
HETATM   40  O6  SGN C   3      19.404  83.193  13.133  1.00 51.09    -0.254 OA
BRANCH  40  41
HETATM   41  S2  SGN C   3      18.351  84.389  13.220  1.00 54.80     0.251 S 
HETATM   42  O4S SGN C   3      17.587  84.215  14.469  1.00 54.99    -0.572 OA
HETATM   43  O5S SGN C   3      17.477  84.277  12.015  1.00 53.99    -0.572 OA
HETATM   44  O6S SGN C   3      19.119  85.628  13.226  1.00 55.43    -0.572 OA
ENDBRANCH  40  41
ENDBRANCH  39  40
ENDBRANCH  12  39
ENDBRANCH   7   8
ENDBRANCH   4   7
BRANCH   3  45
HETATM   45  O3  IDS C   2      24.927  77.918  14.203  1.00 39.65    -0.390 OA
ATOM     46  H3  IDS C   2      25.101  77.186  13.624  1.00  0.00     0.210 HD
ENDBRANCH   3  45
BRANCH   5  47
HETATM   47  C6  IDS C   2      24.601  82.867  14.160  1.00 36.10     0.206 C 
HETATM   48  O6A IDS C   2      24.910  83.665  13.248  1.00 32.44    -0.646 OA
HETATM   49  O6B IDS C   2      23.696  83.080  15.001  1.00 33.44    -0.646 OA
ENDBRANCH   5  47
BRANCH   2  50
HETATM   50  O2  IDS C   2      27.674  78.192  13.803  1.00 43.59    -0.244 OA
BRANCH  50  51
HETATM   51  S   IDS C   2      28.282  77.285  14.967  1.00 44.11     0.252 S 
HETATM   52  O1S IDS C   2      28.761  76.015  14.322  1.00 44.48    -0.572 OA
HETATM   53  O2S IDS C   2      27.196  77.041  15.939  1.00 44.29    -0.572 OA
HETATM   54  O3S IDS C   2      29.375  78.036  15.558  1.00 44.74    -0.572 OA
ENDBRANCH  50  51
ENDBRANCH   2  50
BRANCH   1  55
HETATM   55  O4  SGN C   1      28.427  81.134  14.371  1.00 44.73    -0.348 OA
BRANCH  55  56
HETATM   56  C4  SGN C   1      29.382  82.063  13.814  1.00 48.25     0.186 C 
HETATM   57  C3  SGN C   1      29.249  83.424  14.510  1.00 48.43     0.178 C 
HETATM   58  C2  SGN C   1      30.357  84.365  14.038  1.00 48.58     0.181 C 
HETATM   59  C1  SGN C   1      31.738  83.732  14.198  1.00 50.40     0.283 C 
HETATM   60  O5  SGN C   1      31.784  82.470  13.521  1.00 50.82    -0.349 OA
HETATM   61  C5  SGN C   1      30.808  81.525  14.020  1.00 51.58     0.181 C 
BRANCH  57  62
HETATM   62  O3  SGN C   1      27.987  83.998  14.212  1.00 46.09    -0.391 OA
ATOM     63  H3  SGN C   1      27.939  84.867  14.595  1.00  0.00     0.210 HD
ENDBRANCH  57  62
BRANCH  58  64
HETATM   64  N2  SGN C   1      30.306  85.613  14.770  1.00 48.56    -0.289 N 
ATOM     65  H2  SGN C   1      30.480  85.671  15.773  1.00  0.00     0.175 HD
BRANCH  64  66
HETATM   66  S1  SGN C   1      29.941  86.937  13.847  1.00 47.67     0.205 S 
HETATM   67  O1S SGN C   1      30.277  88.127  14.660  1.00 47.59    -0.578 OA
HETATM   68  O2S SGN C   1      28.505  86.836  13.570  1.00 48.55    -0.578 OA
HETATM   69  O3S SGN C   1      30.764  86.839  12.622  1.00 47.08    -0.578 OA
ENDBRANCH  64  66
ENDBRANCH  58  64
BRANCH  59  70
HETATM   70  O1  SGN C   1      32.009  83.524  15.542  1.00 51.36    -0.369 OA
ATOM     71  H1  SGN C   1      32.635  84.169  15.849  1.00  0.00     0.212 HD
ENDBRANCH  59  70
BRANCH  61  72
HETATM   72  C6  SGN C   1      31.052  80.228  13.290  1.00 55.48     0.227 C 
BRANCH  72  73
HETATM   73  O6  SGN C   1      32.473  79.999  13.172  1.00 61.59    -0.254 OA
BRANCH  73  74
HETATM   74  S2  SGN C   1      32.892  78.494  12.862  1.00 65.98     0.251 S 
HETATM   75  O4S SGN C   1      31.634  77.635  13.012  1.00 65.09    -0.572 OA
HETATM   76  O5S SGN C   1      33.908  78.138  13.835  1.00 65.58    -0.572 OA
HETATM   77  O6S SGN C   1      33.447  78.462  11.403  1.00 65.84    -0.572 OA
ENDBRANCH  73  74
ENDBRANCH  72  73
ENDBRANCH  61  72
ENDBRANCH  55  56
ENDBRANCH   1  55
TORSDOF 27
ENDMDL
MODEL 76
REMARK VINA RESULT:      -5.0      7.606     12.869
REMARK  27 active torsions:
REMARK  status: ('A' for Active; 'I' for Inactive)
REMARK    1  A    between atoms: C1_1  and  O1_2 
REMARK    2  A    between atoms: S1_5  and  N2_7 
REMARK    3  A    between atoms: C2_6  and  N2_7 
REMARK    4  A    between atoms: S2_10  and  O6_22 
REMARK    5  A    between atoms: C3_11  and  O3_12 
REMARK    6  A    between atoms: C4_15  and  O4_16 
REMARK    7  A    between atoms: O4_16  and  C1_24 
REMARK    8  A    between atoms: C5_18  and  C6_21 
REMARK    9  A    between atoms: C6_21  and  O6_22 
REMARK   10  A    between atoms: C2_26  and  O2_27 
REMARK   11  A    between atoms: O2_27  and  S_40 
REMARK   12  A    between atoms: C3_29  and  O3_30 
REMARK   13  A    between atoms: C4_33  and  O4_34 
REMARK   14  A    between atoms: O4_34  and  C1_41 
REMARK   15  A    between atoms: C5_35  and  C6_37 
REMARK   16  A    between atoms: S1_43  and  N2_45 
REMARK   17  A    between atoms: C2_44  and  N2_45 
REMARK   18  A    between atoms: S2_48  and  O6_60 
REMARK   19  A    between atoms: C3_49  and  O3_50 
REMARK   20  A    between atoms: C4_53  and  O4_54 
REMARK   21  A    between atoms: O4_54  and  C1_62 
REMARK   22  A    between atoms: C5_56  and  C6_59 
REMARK   23  A    between atoms: C6_59  and  O6_60 
REMARK   24  A    between atoms: C2_64  and  O2_65 
REMARK   25  A    between atoms: O2_65  and  S_77 
REMARK   26  A    between atoms: C3_67  and  O3_68 
REMARK   27  A    between atoms: C5_72  and  C6_74 
ROOT
HETATM    1  C1  IDS C   2      32.067  72.812  17.943  1.00 40.81     0.294 C 
HETATM    2  C2  IDS C   2      31.297  72.578  19.246  1.00 40.20     0.231 C 
HETATM    3  C3  IDS C   2      32.167  71.867  20.278  1.00 39.01     0.185 C 
HETATM    4  C4  IDS C   2      32.636  70.495  19.754  1.00 37.65     0.195 C 
HETATM    5  C5  IDS C   2      32.549  70.464  18.222  1.00 35.99     0.257 C 
HETATM    6  O5  IDS C   2      32.992  71.733  17.684  1.00 39.00    -0.340 OA
ENDROOT
BRANCH   4   7
HETATM    7  O4  IDS C   2      33.999  70.246  20.179  1.00 35.98    -0.348 OA
BRANCH   7   8
HETATM    8  C1  SGN C   3      34.545  71.176  21.075  1.00 35.40     0.287 C 
HETATM    9  C2  SGN C   3      35.868  71.734  20.521  1.00 33.71     0.182 C 
HETATM   10  C3  SGN C   3      37.007  70.710  20.593  1.00 35.79     0.178 C 
HETATM   11  C4  SGN C   3      37.074  70.022  21.967  1.00 36.62     0.186 C 
HETATM   12  C5  SGN C   3      35.691  69.530  22.374  1.00 39.32     0.181 C 
HETATM   13  O5  SGN C   3      34.754  70.621  22.362  1.00 37.58    -0.349 OA
BRANCH   9  14
HETATM   14  N2  SGN C   3      35.685  72.129  19.142  1.00 29.28    -0.289 N 
ATOM     15  H2  SGN C   3      35.258  71.498  18.464  1.00  0.00     0.175 HD
BRANCH  14  16
HETATM   16  S1  SGN C   3      36.193  73.638  18.703  1.00 27.84     0.205 S 
HETATM   17  O1S SGN C   3      37.567  73.451  18.278  1.00 27.65    -0.578 OA
HETATM   18  O2S SGN C   3      36.079  74.465  19.941  1.00 27.72    -0.578 OA
HETATM   19  O3S SGN C   3      35.321  74.156  17.602  1.00 28.50    -0.578 OA
ENDBRANCH  14  16
ENDBRANCH   9  14
BRANCH  10  20
HETATM   20  O3  SGN C   3      38.245  71.357  20.310  1.00 34.89    -0.391 OA
ATOM     21  H3  SGN C   3      38.091  72.280  20.148  1.00  0.00     0.210 HD
ENDBRANCH  10  20
BRANCH  11  22
HETATM   22  O4  SGN C   3      37.957  68.889  21.886  1.00 37.13    -0.348 OA
BRANCH  22  23
HETATM   23  C1  UAP C   4      39.113  68.981  22.646  1.00 39.64     0.294 C 
HETATM   24  C2  UAP C   4      40.006  67.782  22.384  1.00 38.70     0.228 C 
HETATM   25  C3  UAP C   4      41.232  67.835  23.293  1.00 38.51     0.156 C 
HETATM   26  C4  UAP C   4      41.869  69.294  23.436  1.00 38.14     0.077 C 
HETATM   27  C5  UAP C   4      41.090  70.329  22.899  1.00 38.51     0.228 C 
HETATM   28  O5  UAP C   4      39.796  70.164  22.253  1.00 37.46    -0.343 OA
BRANCH  24  29
HETATM   29  O2  UAP C   4      39.289  66.543  22.692  1.00 40.54    -0.244 OA
BRANCH  29  30
HETATM   30  S   UAP C   4      38.951  66.140  24.204  1.00 40.49     0.252 S 
HETATM   31  O1S UAP C   4      38.584  67.378  24.906  1.00 40.89    -0.572 OA
HETATM   32  O2S UAP C   4      40.170  65.539  24.765  1.00 37.88    -0.572 OA
HETATM   33  O3S UAP C   4      37.835  65.182  24.157  1.00 37.47    -0.572 OA
ENDBRANCH  29  30
ENDBRANCH  24  29
BRANCH  25  34
HETATM   34  O3  UAP C   4      42.215  66.941  22.794  1.00 38.58    -0.393 OA
ATOM     35  H3  UAP C   4      42.483  66.356  23.493  1.00  0.00     0.210 HD
ENDBRANCH  25  34
BRANCH  27  36
HETATM   36  C6  UAP C   4      41.536  71.750  22.902  1.00 37.96     0.203 C 
HETATM   37  O6A UAP C   4      40.993  72.536  23.704  1.00 40.05    -0.646 OA
HETATM   38  O6B UAP C   4      42.432  72.091  22.101  1.00 36.71    -0.646 OA
ENDBRANCH  27  36
ENDBRANCH  22  23
ENDBRANCH  11  22
BRANCH  12  39
HETATM   39  C6  SGN C   3      35.633  68.914  23.745  1.00 42.65     0.227 C 
BRANCH  39  40
HETATM   40  O6  SGN C   3      35.515  67.491  23.528  1.00 51.09    -0.254 OA
BRANCH  40  41
HETATM   41  S2  SGN C   3      34.174  66.804  24.055  1.00 54.80     0.251 S 
HETATM   42  O4S SGN C   3      34.329  65.347  23.887  1.00 54.99    -0.572 OA
HETATM   43  O5S SGN C   3      33.061  67.343  23.217  1.00 53.99    -0.572 OA
HETATM   44  O6S SGN C   3      34.031  67.174  25.456  1.00 55.43    -0.572 OA
ENDBRANCH  40  41
ENDBRANCH  39  40
ENDBRANCH  12  39
ENDBRANCH   7   8
ENDBRANCH   4   7
BRANCH   3  45
HETATM   45  O3  IDS C   2      31.432  71.698  21.482  1.00 39.65    -0.390 OA
ATOM     46  H3  IDS C   2      31.811  72.240  22.163  1.00  0.00     0.210 HD
ENDBRANCH   3  45
BRANCH   5  47
HETATM   47  C6  IDS C   2      33.363  69.364  17.554  1.00 36.10     0.206 C 
HETATM   48  O6A IDS C   2      33.011  68.181  17.753  1.00 32.44    -0.646 OA
HETATM   49  O6B IDS C   2      34.331  69.696  16.828  1.00 33.44    -0.646 OA
ENDBRANCH   5  47
BRANCH   2  50
HETATM   50  O2  IDS C   2      30.879  73.858  19.805  1.00 43.59    -0.244 OA
BRANCH  50  51
HETATM   51  S   IDS C   2      31.959  75.012  20.025  1.00 44.11     0.252 S 
HETATM   52  O1S IDS C   2      31.270  76.112  20.783  1.00 44.48    -0.572 OA
HETATM   53  O2S IDS C   2      32.403  75.452  18.686  1.00 44.29    -0.572 OA
HETATM   54  O3S IDS C   2      33.048  74.430  20.789  1.00 44.74    -0.572 OA
ENDBRANCH  50  51
ENDBRANCH   2  50
BRANCH   1  55
HETATM   55  O4  SGN C   1      31.173  72.891  16.885  1.00 44.73    -0.348 OA
BRANCH  55  56
HETATM   56  C4  SGN C   1      31.701  72.735  15.549  1.00 48.25     0.186 C 
HETATM   57  C3  SGN C   1      30.854  71.720  14.772  1.00 48.43     0.178 C 
HETATM   58  C2  SGN C   1      31.309  71.664  13.314  1.00 48.58     0.181 C 
HETATM   59  C1  SGN C   1      31.327  73.053  12.679  1.00 50.40     0.283 C 
HETATM   60  O5  SGN C   1      32.137  73.942  13.458  1.00 50.82    -0.349 OA
HETATM   61  C5  SGN C   1      31.667  74.088  14.818  1.00 51.58     0.181 C 
BRANCH  57  62
HETATM   62  O3  SGN C   1      30.988  70.433  15.354  1.00 46.09    -0.391 OA
ATOM     63  H3  SGN C   1      31.408  69.849  14.732  1.00  0.00     0.210 HD
ENDBRANCH  57  62
BRANCH  58  64
HETATM   64  N2  SGN C   1      30.445  70.790  12.548  1.00 48.56    -0.289 N 
ATOM     65  H2  SGN C   1      29.430  70.792  12.648  1.00  0.00     0.175 HD
BRANCH  64  66
HETATM   66  S1  SGN C   1      31.237  69.788  11.498  1.00 47.67     0.205 S 
HETATM   67  O1S SGN C   1      31.087  70.379  10.150  1.00 47.59    -0.578 OA
HETATM   68  O2S SGN C   1      30.568  68.489  11.617  1.00 48.55    -0.578 OA
HETATM   69  O3S SGN C   1      32.648  69.742  11.940  1.00 47.08    -0.578 OA
ENDBRANCH  64  66
ENDBRANCH  58  64
BRANCH  59  70
HETATM   70  O1  SGN C   1      30.038  73.563  12.622  1.00 51.36    -0.369 OA
ATOM     71  H1  SGN C   1      29.874  74.111  13.380  1.00  0.00     0.212 HD
ENDBRANCH  59  70
BRANCH  61  72
HETATM   72  C6  SGN C   1      32.549  75.124  15.470  1.00 55.48     0.227 C 
BRANCH  72  73
HETATM   73  O6  SGN C   1      33.707  75.363  14.641  1.00 61.59    -0.254 OA
BRANCH  73  74
HETATM   74  S2  SGN C   1      34.509  76.701  14.968  1.00 65.98     0.251 S 
HETATM   75  O4S SGN C   1      34.168  77.090  16.409  1.00 65.09    -0.572 OA
HETATM   76  O5S SGN C   1      34.055  77.699  14.018  1.00 65.58    -0.572 OA
HETATM   77  O6S SGN C   1      36.027  76.381  14.795  1.00 65.84    -0.572 OA
ENDBRANCH  73  74
ENDBRANCH  72  73
ENDBRANCH  61  72
ENDBRANCH  55  56
ENDBRANCH   1  55
TORSDOF 27
ENDMDL
MODEL 77
REMARK VINA RESULT:      -5.0      8.395     12.100
REMARK  27 active torsions:
REMARK  status: ('A' for Active; 'I' for Inactive)
REMARK    1  A    between atoms: C1_1  and  O1_2 
REMARK    2  A    between atoms: S1_5  and  N2_7 
REMARK    3  A    between atoms: C2_6  and  N2_7 
REMARK    4  A    between atoms: S2_10  and  O6_22 
REMARK    5  A    between atoms: C3_11  and  O3_12 
REMARK    6  A    between atoms: C4_15  and  O4_16 
REMARK    7  A    between atoms: O4_16  and  C1_24 
REMARK    8  A    between atoms: C5_18  and  C6_21 
REMARK    9  A    between atoms: C6_21  and  O6_22 
REMARK   10  A    between atoms: C2_26  and  O2_27 
REMARK   11  A    between atoms: O2_27  and  S_40 
REMARK   12  A    between atoms: C3_29  and  O3_30 
REMARK   13  A    between atoms: C4_33  and  O4_34 
REMARK   14  A    between atoms: O4_34  and  C1_41 
REMARK   15  A    between atoms: C5_35  and  C6_37 
REMARK   16  A    between atoms: S1_43  and  N2_45 
REMARK   17  A    between atoms: C2_44  and  N2_45 
REMARK   18  A    between atoms: S2_48  and  O6_60 
REMARK   19  A    between atoms: C3_49  and  O3_50 
REMARK   20  A    between atoms: C4_53  and  O4_54 
REMARK   21  A    between atoms: O4_54  and  C1_62 
REMARK   22  A    between atoms: C5_56  and  C6_59 
REMARK   23  A    between atoms: C6_59  and  O6_60 
REMARK   24  A    between atoms: C2_64  and  O2_65 
REMARK   25  A    between atoms: O2_65  and  S_77 
REMARK   26  A    between atoms: C3_67  and  O3_68 
REMARK   27  A    between atoms: C5_72  and  C6_74 
ROOT
HETATM    1  C1  IDS C   2      40.728  78.506  16.902  1.00 40.81     0.294 C 
HETATM    2  C2  IDS C   2      41.678  77.508  17.568  1.00 40.20     0.231 C 
HETATM    3  C3  IDS C   2      40.902  76.419  18.304  1.00 39.01     0.185 C 
HETATM    4  C4  IDS C   2      40.007  77.025  19.404  1.00 37.65     0.195 C 
HETATM    5  C5  IDS C   2      39.751  78.509  19.108  1.00 35.99     0.257 C 
HETATM    6  O5  IDS C   2      39.531  78.692  17.689  1.00 39.00    -0.340 OA
ENDROOT
BRANCH   4   7
HETATM    7  O4  IDS C   2      38.749  76.307  19.464  1.00 35.98    -0.348 OA
BRANCH   7   8
HETATM    8  C1  SGN C   3      38.602  75.245  18.560  1.00 35.40     0.287 C 
HETATM    9  C2  SGN C   3      37.287  75.397  17.775  1.00 33.71     0.182 C 
HETATM   10  C3  SGN C   3      36.056  75.086  18.635  1.00 35.79     0.178 C 
HETATM   11  C4  SGN C   3      36.230  73.786  19.439  1.00 36.62     0.186 C 
HETATM   12  C5  SGN C   3      37.576  73.789  20.153  1.00 39.32     0.181 C 
HETATM   13  O5  SGN C   3      38.639  73.984  19.204  1.00 37.58    -0.349 OA
BRANCH   9  14
HETATM   14  N2  SGN C   3      37.175  76.750  17.276  1.00 29.28    -0.289 N 
ATOM     15  H2  SGN C   3      37.448  77.548  17.849  1.00  0.00     0.175 HD
BRANCH  14  16
HETATM   16  S1  SGN C   3      36.591  76.956  15.745  1.00 27.84     0.205 S 
HETATM   17  O1S SGN C   3      35.269  77.524  15.933  1.00 27.65    -0.578 OA
HETATM   18  O2S SGN C   3      36.552  75.586  15.153  1.00 27.72    -0.578 OA
HETATM   19  O3S SGN C   3      37.500  77.869  14.984  1.00 28.50    -0.578 OA
ENDBRANCH  14  16
ENDBRANCH   9  14
BRANCH  10  20
HETATM   20  O3  SGN C   3      34.904  74.994  17.800  1.00 34.89    -0.391 OA
ATOM     21  H3  SGN C   3      35.028  75.534  17.028  1.00  0.00     0.210 HD
ENDBRANCH  10  20
BRANCH  11  22
HETATM   22  O4  SGN C   3      35.188  73.698  20.427  1.00 37.13    -0.348 OA
BRANCH  22  23
HETATM   23  C1  UAP C   4      34.268  72.680  20.230  1.00 39.64     0.294 C 
HETATM   24  C2  UAP C   4      33.001  73.234  19.605  1.00 38.70     0.228 C 
HETATM   25  C3  UAP C   4      31.953  72.131  19.479  1.00 38.51     0.156 C 
HETATM   26  C4  UAP C   4      32.545  70.730  18.985  1.00 38.14     0.077 C 
HETATM   27  C5  UAP C   4      33.945  70.661  18.959  1.00 38.51     0.228 C 
HETATM   28  O5  UAP C   4      34.851  71.736  19.341  1.00 37.46    -0.343 OA
BRANCH  24  29
HETATM   29  O2  UAP C   4      32.433  74.277  20.461  1.00 40.54    -0.244 OA
BRANCH  29  30
HETATM   30  S   UAP C   4      32.171  75.753  19.898  1.00 40.49     0.252 S 
HETATM   31  O1S UAP C   4      31.012  76.290  20.626  1.00 40.89    -0.572 OA
HETATM   32  O2S UAP C   4      31.894  75.617  18.461  1.00 37.88    -0.572 OA
HETATM   33  O3S UAP C   4      33.391  76.536  20.153  1.00 37.47    -0.572 OA
ENDBRANCH  29  30
ENDBRANCH  24  29
BRANCH  25  34
HETATM   34  O3  UAP C   4      30.942  72.556  18.580  1.00 38.58    -0.393 OA
ATOM     35  H3  UAP C   4      30.713  73.457  18.775  1.00  0.00     0.210 HD
ENDBRANCH  25  34
BRANCH  27  36
HETATM   36  C6  UAP C   4      34.679  69.453  18.490  1.00 37.96     0.203 C 
HETATM   37  O6A UAP C   4      34.037  68.574  17.881  1.00 40.05    -0.646 OA
HETATM   38  O6B UAP C   4      35.902  69.373  18.730  1.00 36.71    -0.646 OA
ENDBRANCH  27  36
ENDBRANCH  22  23
ENDBRANCH  11  22
BRANCH  12  39
HETATM   39  C6  SGN C   3      37.879  72.521  20.902  1.00 42.65     0.227 C 
BRANCH  39  40
HETATM   40  O6  SGN C   3      37.539  72.790  22.280  1.00 51.09    -0.254 OA
BRANCH  40  41
HETATM   41  S2  SGN C   3      37.017  71.548  23.136  1.00 54.80     0.251 S 
HETATM   42  O4S SGN C   3      38.202  70.846  23.662  1.00 54.99    -0.572 OA
HETATM   43  O5S SGN C   3      36.232  70.686  22.202  1.00 53.99    -0.572 OA
HETATM   44  O6S SGN C   3      36.190  72.090  24.206  1.00 55.43    -0.572 OA
ENDBRANCH  40  41
ENDBRANCH  39  40
ENDBRANCH  12  39
ENDBRANCH   7   8
ENDBRANCH   4   7
BRANCH   3  45
HETATM   45  O3  IDS C   2      41.815  75.494  18.880  1.00 39.65    -0.390 OA
ATOM     46  H3  IDS C   2      41.599  74.616  18.592  1.00  0.00     0.210 HD
ENDBRANCH   3  45
BRANCH   5  47
HETATM   47  C6  IDS C   2      38.567  79.116  19.847  1.00 36.10     0.206 C 
HETATM   48  O6A IDS C   2      38.780  79.615  20.975  1.00 32.44    -0.646 OA
HETATM   49  O6B IDS C   2      37.444  79.102  19.287  1.00 33.44    -0.646 OA
ENDBRANCH   5  47
BRANCH   2  50
HETATM   50  O2  IDS C   2      42.510  76.871  16.556  1.00 43.59    -0.244 OA
BRANCH  50  51
HETATM   51  S   IDS C   2      44.026  76.507  16.895  1.00 44.11     0.252 S 
HETATM   52  O1S IDS C   2      44.104  75.009  16.982  1.00 44.48    -0.572 OA
HETATM   53  O2S IDS C   2      44.351  77.158  18.182  1.00 44.29    -0.572 OA
HETATM   54  O3S IDS C   2      44.837  77.027  15.809  1.00 44.74    -0.572 OA
ENDBRANCH  50  51
ENDBRANCH   2  50
BRANCH   1  55
HETATM   55  O4  SGN C   1      41.364  79.732  16.768  1.00 44.73    -0.348 OA
BRANCH  55  56
HETATM   56  C4  SGN C   1      41.611  80.216  15.430  1.00 48.25     0.186 C 
HETATM   57  C3  SGN C   1      40.389  80.993  14.924  1.00 48.43     0.178 C 
HETATM   58  C2  SGN C   1      40.700  81.639  13.575  1.00 48.58     0.181 C 
HETATM   59  C1  SGN C   1      41.973  82.480  13.635  1.00 50.40     0.283 C 
HETATM   60  O5  SGN C   1      43.067  81.687  14.112  1.00 50.82    -0.349 OA
HETATM   61  C5  SGN C   1      42.837  81.145  15.433  1.00 51.58     0.181 C 
BRANCH  57  62
HETATM   62  O3  SGN C   1      39.284  80.115  14.781  1.00 46.09    -0.391 OA
ATOM     63  H3  SGN C   1      38.535  80.604  14.457  1.00  0.00     0.210 HD
ENDBRANCH  57  62
BRANCH  58  64
HETATM   64  N2  SGN C   1      39.591  82.464  13.142  1.00 48.56    -0.289 N 
ATOM     65  H2  SGN C   1      39.375  83.364  13.570  1.00  0.00     0.175 HD
BRANCH  64  66
HETATM   66  S1  SGN C   1      38.705  81.829  11.898  1.00 47.67     0.205 S 
HETATM   67  O1S SGN C   1      37.575  81.097  12.511  1.00 47.59    -0.578 OA
HETATM   68  O2S SGN C   1      39.623  80.940  11.179  1.00 48.55    -0.578 OA
HETATM   69  O3S SGN C   1      38.256  82.971  11.072  1.00 47.08    -0.578 OA
ENDBRANCH  64  66
ENDBRANCH  58  64
BRANCH  59  70
HETATM   70  O1  SGN C   1      41.792  83.550  14.498  1.00 51.36    -0.369 OA
ATOM     71  H1  SGN C   1      42.536  83.623  15.084  1.00  0.00     0.212 HD
ENDBRANCH  59  70
BRANCH  61  72
HETATM   72  C6  SGN C   1      44.105  80.433  15.834  1.00 55.48     0.227 C 
BRANCH  72  73
HETATM   73  O6  SGN C   1      45.029  81.380  16.412  1.00 61.59    -0.254 OA
BRANCH  73  74
HETATM   74  S2  SGN C   1      44.836  81.650  17.970  1.00 65.98     0.251 S 
HETATM   75  O4S SGN C   1      44.000  82.924  18.108  1.00 65.09    -0.572 OA
HETATM   76  O5S SGN C   1      46.165  81.813  18.530  1.00 65.58    -0.572 OA
HETATM   77  O6S SGN C   1      44.103  80.406  18.565  1.00 65.84    -0.572 OA
ENDBRANCH  73  74
ENDBRANCH  72  73
ENDBRANCH  61  72
ENDBRANCH  55  56
ENDBRANCH   1  55
TORSDOF 27
ENDMDL
MODEL 78
REMARK VINA RESULT:      -5.0     10.501     14.291
REMARK  27 active torsions:
REMARK  status: ('A' for Active; 'I' for Inactive)
REMARK    1  A    between atoms: C1_1  and  O1_2 
REMARK    2  A    between atoms: S1_5  and  N2_7 
REMARK    3  A    between atoms: C2_6  and  N2_7 
REMARK    4  A    between atoms: S2_10  and  O6_22 
REMARK    5  A    between atoms: C3_11  and  O3_12 
REMARK    6  A    between atoms: C4_15  and  O4_16 
REMARK    7  A    between atoms: O4_16  and  C1_24 
REMARK    8  A    between atoms: C5_18  and  C6_21 
REMARK    9  A    between atoms: C6_21  and  O6_22 
REMARK   10  A    between atoms: C2_26  and  O2_27 
REMARK   11  A    between atoms: O2_27  and  S_40 
REMARK   12  A    between atoms: C3_29  and  O3_30 
REMARK   13  A    between atoms: C4_33  and  O4_34 
REMARK   14  A    between atoms: O4_34  and  C1_41 
REMARK   15  A    between atoms: C5_35  and  C6_37 
REMARK   16  A    between atoms: S1_43  and  N2_45 
REMARK   17  A    between atoms: C2_44  and  N2_45 
REMARK   18  A    between atoms: S2_48  and  O6_60 
REMARK   19  A    between atoms: C3_49  and  O3_50 
REMARK   20  A    between atoms: C4_53  and  O4_54 
REMARK   21  A    between atoms: O4_54  and  C1_62 
REMARK   22  A    between atoms: C5_56  and  C6_59 
REMARK   23  A    between atoms: C6_59  and  O6_60 
REMARK   24  A    between atoms: C2_64  and  O2_65 
REMARK   25  A    between atoms: O2_65  and  S_77 
REMARK   26  A    between atoms: C3_67  and  O3_68 
REMARK   27  A    between atoms: C5_72  and  C6_74 
ROOT
HETATM    1  C1  IDS C   2      40.341  75.536  20.000  1.00 40.81     0.294 C 
HETATM    2  C2  IDS C   2      39.588  75.667  18.674  1.00 40.20     0.231 C 
HETATM    3  C3  IDS C   2      38.625  74.500  18.472  1.00 39.01     0.185 C 
HETATM    4  C4  IDS C   2      39.380  73.156  18.456  1.00 37.65     0.195 C 
HETATM    5  C5  IDS C   2      40.740  73.314  19.147  1.00 35.99     0.257 C 
HETATM    6  O5  IDS C   2      40.596  74.150  20.320  1.00 39.00    -0.340 OA
ENDROOT
BRANCH   4   7
HETATM    7  O4  IDS C   2      38.594  72.143  19.132  1.00 35.98    -0.348 OA
BRANCH   7   8
HETATM    8  C1  SGN C   3      37.530  72.611  19.917  1.00 35.40     0.287 C 
HETATM    9  C2  SGN C   3      37.640  72.049  21.346  1.00 33.71     0.182 C 
HETATM   10  C3  SGN C   3      37.286  70.559  21.415  1.00 35.79     0.178 C 
HETATM   11  C4  SGN C   3      35.990  70.240  20.649  1.00 36.62     0.186 C 
HETATM   12  C5  SGN C   3      36.036  70.865  19.260  1.00 39.32     0.181 C 
HETATM   13  O5  SGN C   3      36.270  72.281  19.362  1.00 37.58    -0.349 OA
BRANCH   9  14
HETATM   14  N2  SGN C   3      38.990  72.229  21.833  1.00 29.28    -0.289 N 
ATOM     15  H2  SGN C   3      39.795  72.072  21.228  1.00  0.00     0.175 HD
BRANCH  14  16
HETATM   16  S1  SGN C   3      39.180  72.697  23.406  1.00 27.84     0.205 S 
HETATM   17  O1S SGN C   3      39.710  71.523  24.074  1.00 27.65    -0.578 OA
HETATM   18  O2S SGN C   3      37.811  73.060  23.875  1.00 27.72    -0.578 OA
HETATM   19  O3S SGN C   3      40.120  73.861  23.468  1.00 28.50    -0.578 OA
ENDBRANCH  14  16
ENDBRANCH   9  14
BRANCH  10  20
HETATM   20  O3  SGN C   3      37.157  70.163  22.778  1.00 34.89    -0.391 OA
ATOM     21  H3  SGN C   3      37.243  69.219  22.844  1.00  0.00     0.210 HD
ENDBRANCH  10  20
BRANCH  11  22
HETATM   22  O4  SGN C   3      35.864  68.814  20.505  1.00 37.13    -0.348 OA
BRANCH  22  23
HETATM   23  C1  UAP C   4      34.796  68.242  21.178  1.00 39.64     0.294 C 
HETATM   24  C2  UAP C   4      34.385  66.947  20.501  1.00 38.70     0.228 C 
HETATM   25  C3  UAP C   4      33.149  66.368  21.183  1.00 38.51     0.156 C 
HETATM   26  C4  UAP C   4      33.188  66.461  22.779  1.00 38.14     0.077 C 
HETATM   27  C5  UAP C   4      34.227  67.248  23.296  1.00 38.51     0.228 C 
HETATM   28  O5  UAP C   4      35.223  67.957  22.504  1.00 37.46    -0.343 OA
BRANCH  24  29
HETATM   29  O2  UAP C   4      34.032  67.201  19.103  1.00 40.54    -0.244 OA
BRANCH  29  30
HETATM   30  S   UAP C   4      34.739  66.397  17.913  1.00 40.49     0.252 S 
HETATM   31  O1S UAP C   4      34.966  65.027  18.398  1.00 40.89    -0.572 OA
HETATM   32  O2S UAP C   4      36.005  67.088  17.628  1.00 37.88    -0.572 OA
HETATM   33  O3S UAP C   4      33.821  66.429  16.764  1.00 37.47    -0.572 OA
ENDBRANCH  29  30
ENDBRANCH  24  29
BRANCH  25  34
HETATM   34  O3  UAP C   4      33.001  65.011  20.796  1.00 38.58    -0.393 OA
ATOM     35  H3  UAP C   4      33.781  64.531  21.048  1.00  0.00     0.210 HD
ENDBRANCH  25  34
BRANCH  27  36
HETATM   36  C6  UAP C   4      34.449  67.421  24.758  1.00 37.96     0.203 C 
HETATM   37  O6A UAP C   4      33.933  66.592  25.534  1.00 40.05    -0.646 OA
HETATM   38  O6B UAP C   4      35.140  68.389  25.141  1.00 36.71    -0.646 OA
ENDBRANCH  27  36
ENDBRANCH  22  23
ENDBRANCH  11  22
BRANCH  12  39
HETATM   39  C6  SGN C   3      34.777  70.682  18.459  1.00 42.65     0.227 C 
BRANCH  39  40
HETATM   40  O6  SGN C   3      34.474  71.980  17.904  1.00 51.09    -0.254 OA
BRANCH  40  41
HETATM   41  S2  SGN C   3      34.635  72.130  16.324  1.00 54.80     0.251 S 
HETATM   42  O4S SGN C   3      33.334  72.569  15.787  1.00 54.99    -0.572 OA
HETATM   43  O5S SGN C   3      35.024  70.785  15.805  1.00 53.99    -0.572 OA
HETATM   44  O6S SGN C   3      35.676  73.124  16.097  1.00 55.43    -0.572 OA
ENDBRANCH  40  41
ENDBRANCH  39  40
ENDBRANCH  12  39
ENDBRANCH   7   8
ENDBRANCH   4   7
BRANCH   3  45
HETATM   45  O3  IDS C   2      37.921  74.673  17.250  1.00 39.65    -0.390 OA
ATOM     46  H3  IDS C   2      36.995  74.516  17.392  1.00  0.00     0.210 HD
ENDBRANCH   3  45
BRANCH   5  47
HETATM   47  C6  IDS C   2      41.397  72.011  19.581  1.00 36.10     0.206 C 
HETATM   48  O6A IDS C   2      41.603  71.145  18.702  1.00 32.44    -0.646 OA
HETATM   49  O6B IDS C   2      41.711  71.874  20.788  1.00 33.44    -0.646 OA
ENDBRANCH   5  47
BRANCH   2  50
HETATM   50  O2  IDS C   2      38.816  76.903  18.667  1.00 43.59    -0.244 OA
BRANCH  50  51
HETATM   51  S   IDS C   2      38.745  77.781  17.337  1.00 44.11     0.252 S 
HETATM   52  O1S IDS C   2      39.113  79.186  17.724  1.00 44.48    -0.572 OA
HETATM   53  O2S IDS C   2      37.360  77.688  16.829  1.00 44.29    -0.572 OA
HETATM   54  O3S IDS C   2      39.699  77.211  16.403  1.00 44.74    -0.572 OA
ENDBRANCH  50  51
ENDBRANCH   2  50
BRANCH   1  55
HETATM   55  O4  SGN C   1      41.556  76.200  19.911  1.00 44.73    -0.348 OA
BRANCH  55  56
HETATM   56  C4  SGN C   1      42.167  76.648  21.140  1.00 48.25     0.186 C 
HETATM   57  C3  SGN C   1      43.463  75.869  21.391  1.00 48.43     0.178 C 
HETATM   58  C2  SGN C   1      44.194  76.442  22.604  1.00 48.58     0.181 C 
HETATM   59  C1  SGN C   1      44.407  77.949  22.470  1.00 50.40     0.283 C 
HETATM   60  O5  SGN C   1      43.155  78.606  22.241  1.00 50.82    -0.349 OA
HETATM   61  C5  SGN C   1      42.488  78.149  21.041  1.00 51.58     0.181 C 
BRANCH  57  62
HETATM   62  O3  SGN C   1      43.168  74.501  21.625  1.00 46.09    -0.391 OA
ATOM     63  H3  SGN C   1      43.940  73.978  21.446  1.00  0.00     0.210 HD
ENDBRANCH  57  62
BRANCH  58  64
HETATM   64  N2  SGN C   1      45.473  75.784  22.781  1.00 48.56    -0.289 N 
ATOM     65  H2  SGN C   1      46.229  75.856  22.101  1.00  0.00     0.175 HD
BRANCH  64  66
HETATM   66  S1  SGN C   1      45.606  74.907  24.178  1.00 47.67     0.205 S 
HETATM   67  O1S SGN C   1      44.372  74.100  24.292  1.00 47.59    -0.578 OA
HETATM   68  O2S SGN C   1      45.729  75.898  25.251  1.00 48.55    -0.578 OA
HETATM   69  O3S SGN C   1      46.818  74.070  24.037  1.00 47.08    -0.578 OA
ENDBRANCH  64  66
ENDBRANCH  58  64
BRANCH  59  70
HETATM   70  O1  SGN C   1      45.249  78.214  21.400  1.00 51.36    -0.369 OA
ATOM     71  H1  SGN C   1      45.814  77.468  21.241  1.00  0.00     0.212 HD
ENDBRANCH  59  70
BRANCH  61  72
HETATM   72  C6  SGN C   1      41.253  79.000  20.884  1.00 55.48     0.227 C 
BRANCH  72  73
HETATM   73  O6  SGN C   1      41.114  79.867  22.030  1.00 61.59    -0.254 OA
BRANCH  73  74
HETATM   74  S2  SGN C   1      39.701  79.798  22.764  1.00 65.98     0.251 S 
HETATM   75  O4S SGN C   1      39.587  81.046  23.641  1.00 65.09    -0.572 OA
HETATM   76  O5S SGN C   1      39.705  78.581  23.554  1.00 65.58    -0.572 OA
HETATM   77  O6S SGN C   1      38.606  79.765  21.652  1.00 65.84    -0.572 OA
ENDBRANCH  73  74
ENDBRANCH  72  73
ENDBRANCH  61  72
ENDBRANCH  55  56
ENDBRANCH   1  55
TORSDOF 27
ENDMDL
MODEL 79
REMARK VINA RESULT:      -5.0      9.546     15.228
REMARK  27 active torsions:
REMARK  status: ('A' for Active; 'I' for Inactive)
REMARK    1  A    between atoms: C1_1  and  O1_2 
REMARK    2  A    between atoms: S1_5  and  N2_7 
REMARK    3  A    between atoms: C2_6  and  N2_7 
REMARK    4  A    between atoms: S2_10  and  O6_22 
REMARK    5  A    between atoms: C3_11  and  O3_12 
REMARK    6  A    between atoms: C4_15  and  O4_16 
REMARK    7  A    between atoms: O4_16  and  C1_24 
REMARK    8  A    between atoms: C5_18  and  C6_21 
REMARK    9  A    between atoms: C6_21  and  O6_22 
REMARK   10  A    between atoms: C2_26  and  O2_27 
REMARK   11  A    between atoms: O2_27  and  S_40 
REMARK   12  A    between atoms: C3_29  and  O3_30 
REMARK   13  A    between atoms: C4_33  and  O4_34 
REMARK   14  A    between atoms: O4_34  and  C1_41 
REMARK   15  A    between atoms: C5_35  and  C6_37 
REMARK   16  A    between atoms: S1_43  and  N2_45 
REMARK   17  A    between atoms: C2_44  and  N2_45 
REMARK   18  A    between atoms: S2_48  and  O6_60 
REMARK   19  A    between atoms: C3_49  and  O3_50 
REMARK   20  A    between atoms: C4_53  and  O4_54 
REMARK   21  A    between atoms: O4_54  and  C1_62 
REMARK   22  A    between atoms: C5_56  and  C6_59 
REMARK   23  A    between atoms: C6_59  and  O6_60 
REMARK   24  A    between atoms: C2_64  and  O2_65 
REMARK   25  A    between atoms: O2_65  and  S_77 
REMARK   26  A    between atoms: C3_67  and  O3_68 
REMARK   27  A    between atoms: C5_72  and  C6_74 
ROOT
HETATM    1  C1  IDS C   2      20.783  79.007   4.697  1.00 40.81     0.294 C 
HETATM    2  C2  IDS C   2      22.287  79.261   4.569  1.00 40.20     0.231 C 
HETATM    3  C3  IDS C   2      22.779  80.209   5.660  1.00 39.01     0.185 C 
HETATM    4  C4  IDS C   2      22.061  81.571   5.573  1.00 37.65     0.195 C 
HETATM    5  C5  IDS C   2      20.745  81.418   4.800  1.00 35.99     0.257 C 
HETATM    6  O5  IDS C   2      20.096  80.181   5.183  1.00 39.00    -0.340 OA
ENDROOT
BRANCH   4   7
HETATM    7  O4  IDS C   2      21.798  82.073   6.907  1.00 35.98    -0.348 OA
BRANCH   7   8
HETATM    8  C1  SGN C   3      22.224  81.260   7.967  1.00 35.40     0.287 C 
HETATM    9  C2  SGN C   3      21.049  80.969   8.916  1.00 33.71     0.182 C 
HETATM   10  C3  SGN C   3      20.663  82.191   9.758  1.00 35.79     0.178 C 
HETATM   11  C4  SGN C   3      21.895  82.873  10.379  1.00 36.62     0.186 C 
HETATM   12  C5  SGN C   3      22.964  83.090   9.316  1.00 39.32     0.181 C 
HETATM   13  O5  SGN C   3      23.298  81.839   8.688  1.00 37.58    -0.349 OA
BRANCH   9  14
HETATM   14  N2  SGN C   3      19.898  80.553   8.146  1.00 29.28    -0.289 N 
ATOM     15  H2  SGN C   3      19.677  80.987   7.250  1.00  0.00     0.175 HD
BRANCH  14  16
HETATM   16  S1  SGN C   3      18.953  79.349   8.769  1.00 27.84     0.205 S 
HETATM   17  O1S SGN C   3      18.789  78.411   7.675  1.00 27.65    -0.578 OA
HETATM   18  O2S SGN C   3      17.674  80.015   9.155  1.00 27.72    -0.578 OA
HETATM   19  O3S SGN C   3      19.643  78.736   9.948  1.00 28.50    -0.578 OA
ENDBRANCH  14  16
ENDBRANCH   9  14
BRANCH  10  20
HETATM   20  O3  SGN C   3      19.755  81.795  10.783  1.00 34.89    -0.391 OA
ATOM     21  H3  SGN C   3      19.013  82.388  10.796  1.00  0.00     0.210 HD
ENDBRANCH  10  20
BRANCH  11  22
HETATM   22  O4  SGN C   3      21.509  84.155  10.907  1.00 37.13    -0.348 OA
BRANCH  22  23
HETATM   23  C1  UAP C   4      21.652  84.299  12.278  1.00 39.64     0.294 C 
HETATM   24  C2  UAP C   4      20.291  84.283  12.950  1.00 38.70     0.228 C 
HETATM   25  C3  UAP C   4      20.443  84.539  14.447  1.00 38.51     0.156 C 
HETATM   26  C4  UAP C   4      21.675  83.768  15.113  1.00 38.14     0.077 C 
HETATM   27  C5  UAP C   4      22.552  83.164  14.201  1.00 38.51     0.228 C 
HETATM   28  O5  UAP C   4      22.417  83.198  12.752  1.00 37.46    -0.343 OA
BRANCH  24  29
HETATM   29  O2  UAP C   4      19.451  85.352  12.409  1.00 40.54    -0.244 OA
BRANCH  29  30
HETATM   30  S   UAP C   4      17.980  85.046  11.856  1.00 40.49     0.252 S 
HETATM   31  O1S UAP C   4      18.140  84.408  10.542  1.00 40.89    -0.572 OA
HETATM   32  O2S UAP C   4      17.288  86.339  11.751  1.00 37.88    -0.572 OA
HETATM   33  O3S UAP C   4      17.331  84.150  12.827  1.00 37.47    -0.572 OA
ENDBRANCH  29  30
ENDBRANCH  24  29
BRANCH  25  34
HETATM   34  O3  UAP C   4      19.244  84.161  15.104  1.00 38.58    -0.393 OA
ATOM     35  H3  UAP C   4      18.826  83.466  14.609  1.00  0.00     0.210 HD
ENDBRANCH  25  34
BRANCH  27  36
HETATM   36  C6  UAP C   4      23.734  82.368  14.634  1.00 37.96     0.203 C 
HETATM   37  O6A UAP C   4      23.709  81.134  14.459  1.00 40.05    -0.646 OA
HETATM   38  O6B UAP C   4      24.695  82.973  15.155  1.00 36.71    -0.646 OA
ENDBRANCH  27  36
ENDBRANCH  22  23
ENDBRANCH  11  22
BRANCH  12  39
HETATM   39  C6  SGN C   3      24.245  83.677   9.839  1.00 42.65     0.227 C 
BRANCH  39  40
HETATM   40  O6  SGN C   3      24.207  85.076   9.484  1.00 51.09    -0.254 OA
BRANCH  40  41
HETATM   41  S2  SGN C   3      24.647  86.107  10.621  1.00 54.80     0.251 S 
HETATM   42  O4S SGN C   3      25.831  86.832  10.125  1.00 54.99    -0.572 OA
HETATM   43  O5S SGN C   3      24.963  85.295  11.834  1.00 53.99    -0.572 OA
HETATM   44  O6S SGN C   3      23.518  87.001  10.840  1.00 55.43    -0.572 OA
ENDBRANCH  40  41
ENDBRANCH  39  40
ENDBRANCH  12  39
ENDBRANCH   7   8
ENDBRANCH   4   7
BRANCH   3  45
HETATM   45  O3  IDS C   2      24.182  80.393   5.530  1.00 39.65    -0.390 OA
ATOM     46  H3  IDS C   2      24.366  81.310   5.362  1.00  0.00     0.210 HD
ENDBRANCH   3  45
BRANCH   5  47
HETATM   47  C6  IDS C   2      19.746  82.550   5.000  1.00 36.10     0.206 C 
HETATM   48  O6A IDS C   2      20.048  83.676   4.547  1.00 32.44    -0.646 OA
HETATM   49  O6B IDS C   2      18.669  82.297   5.592  1.00 33.44    -0.646 OA
ENDBRANCH   5  47
BRANCH   2  50
HETATM   50  O2  IDS C   2      23.010  78.002   4.699  1.00 43.59    -0.244 OA
BRANCH  50  51
HETATM   51  S   IDS C   2      23.939  77.499   3.502  1.00 44.11     0.252 S 
HETATM   52  O1S IDS C   2      24.915  76.520   4.092  1.00 44.48    -0.572 OA
HETATM   53  O2S IDS C   2      24.613  78.691   2.945  1.00 44.29    -0.572 OA
HETATM   54  O3S IDS C   2      23.066  76.870   2.527  1.00 44.74    -0.572 OA
ENDBRANCH  50  51
ENDBRANCH   2  50
BRANCH   1  55
HETATM   55  O4  SGN C   1      20.263  78.673   3.454  1.00 44.73    -0.348 OA
BRANCH  55  56
HETATM   56  C4  SGN C   1      18.930  78.119   3.414  1.00 48.25     0.186 C 
HETATM   57  C3  SGN C   1      18.015  79.029   2.584  1.00 48.43     0.178 C 
HETATM   58  C2  SGN C   1      16.646  78.374   2.406  1.00 48.58     0.181 C 
HETATM   59  C1  SGN C   1      16.769  76.960   1.842  1.00 50.40     0.283 C 
HETATM   60  O5  SGN C   1      17.635  76.173   2.670  1.00 50.82    -0.349 OA
HETATM   61  C5  SGN C   1      18.969  76.721   2.774  1.00 51.58     0.181 C 
BRANCH  57  62
HETATM   62  O3  SGN C   1      17.855  80.279   3.237  1.00 46.09    -0.391 OA
ATOM     63  H3  SGN C   1      17.434  80.142   4.078  1.00  0.00     0.210 HD
ENDBRANCH  57  62
BRANCH  58  64
HETATM   64  N2  SGN C   1      15.812  79.175   1.533  1.00 48.56    -0.289 N 
ATOM     65  H2  SGN C   1      16.037  79.335   0.551  1.00  0.00     0.175 HD
BRANCH  64  66
HETATM   66  S1  SGN C   1      14.467  79.809   2.258  1.00 47.67     0.205 S 
HETATM   67  O1S SGN C   1      13.911  78.747   3.125  1.00 47.59    -0.578 OA
HETATM   68  O2S SGN C   1      13.564  80.166   1.159  1.00 48.55    -0.578 OA
HETATM   69  O3S SGN C   1      14.918  80.989   3.028  1.00 47.08    -0.578 OA
ENDBRANCH  64  66
ENDBRANCH  58  64
BRANCH  59  70
HETATM   70  O1  SGN C   1      17.301  77.007   0.562  1.00 51.36    -0.369 OA
ATOM     71  H1  SGN C   1      16.601  77.044  -0.078  1.00  0.00     0.212 HD
ENDBRANCH  59  70
BRANCH  61  72
HETATM   72  C6  SGN C   1      19.779  75.736   3.579  1.00 55.48     0.227 C 
BRANCH  72  73
HETATM   73  O6  SGN C   1      20.227  74.664   2.722  1.00 61.59    -0.254 OA
BRANCH  73  74
HETATM   74  S2  SGN C   1      19.757  73.206   3.159  1.00 65.98     0.251 S 
HETATM   75  O4S SGN C   1      19.547  73.235   4.675  1.00 65.09    -0.572 OA
HETATM   76  O5S SGN C   1      20.823  72.296   2.779  1.00 65.58    -0.572 OA
HETATM   77  O6S SGN C   1      18.432  72.900   2.394  1.00 65.84    -0.572 OA
ENDBRANCH  73  74
ENDBRANCH  72  73
ENDBRANCH  61  72
ENDBRANCH  55  56
ENDBRANCH   1  55
TORSDOF 27
ENDMDL
MODEL 80
REMARK VINA RESULT:      -5.0      5.513     14.007
REMARK  27 active torsions:
REMARK  status: ('A' for Active; 'I' for Inactive)
REMARK    1  A    between atoms: C1_1  and  O1_2 
REMARK    2  A    between atoms: S1_5  and  N2_7 
REMARK    3  A    between atoms: C2_6  and  N2_7 
REMARK    4  A    between atoms: S2_10  and  O6_22 
REMARK    5  A    between atoms: C3_11  and  O3_12 
REMARK    6  A    between atoms: C4_15  and  O4_16 
REMARK    7  A    between atoms: O4_16  and  C1_24 
REMARK    8  A    between atoms: C5_18  and  C6_21 
REMARK    9  A    between atoms: C6_21  and  O6_22 
REMARK   10  A    between atoms: C2_26  and  O2_27 
REMARK   11  A    between atoms: O2_27  and  S_40 
REMARK   12  A    between atoms: C3_29  and  O3_30 
REMARK   13  A    between atoms: C4_33  and  O4_34 
REMARK   14  A    between atoms: O4_34  and  C1_41 
REMARK   15  A    between atoms: C5_35  and  C6_37 
REMARK   16  A    between atoms: S1_43  and  N2_45 
REMARK   17  A    between atoms: C2_44  and  N2_45 
REMARK   18  A    between atoms: S2_48  and  O6_60 
REMARK   19  A    between atoms: C3_49  and  O3_50 
REMARK   20  A    between atoms: C4_53  and  O4_54 
REMARK   21  A    between atoms: O4_54  and  C1_62 
REMARK   22  A    between atoms: C5_56  and  C6_59 
REMARK   23  A    between atoms: C6_59  and  O6_60 
REMARK   24  A    between atoms: C2_64  and  O2_65 
REMARK   25  A    between atoms: O2_65  and  S_77 
REMARK   26  A    between atoms: C3_67  and  O3_68 
REMARK   27  A    between atoms: C5_72  and  C6_74 
ROOT
HETATM    1  C1  IDS C   2      26.900  85.540  13.161  1.00 40.81     0.294 C 
HETATM    2  C2  IDS C   2      26.842  86.934  12.532  1.00 40.20     0.231 C 
HETATM    3  C3  IDS C   2      25.461  87.214  11.947  1.00 39.01     0.185 C 
HETATM    4  C4  IDS C   2      25.105  86.187  10.853  1.00 37.65     0.195 C 
HETATM    5  C5  IDS C   2      25.958  84.924  11.027  1.00 35.99     0.257 C 
HETATM    6  O5  IDS C   2      26.073  84.604  12.434  1.00 39.00    -0.340 OA
ENDROOT
BRANCH   4   7
HETATM    7  O4  IDS C   2      23.697  85.851  10.934  1.00 35.98    -0.348 OA
BRANCH   7   8
HETATM    8  C1  SGN C   3      23.036  86.243  12.107  1.00 35.40     0.287 C 
HETATM    9  C2  SGN C   3      21.947  85.218  12.469  1.00 33.71     0.182 C 
HETATM   10  C3  SGN C   3      20.736  85.300  11.533  1.00 35.79     0.178 C 
HETATM   11  C4  SGN C   3      20.270  86.751  11.321  1.00 36.62     0.186 C 
HETATM   12  C5  SGN C   3      21.460  87.636  10.973  1.00 39.32     0.181 C 
HETATM   13  O5  SGN C   3      22.467  87.536  11.994  1.00 37.58    -0.349 OA
BRANCH   9  14
HETATM   14  N2  SGN C   3      22.499  83.883  12.401  1.00 29.28    -0.289 N 
ATOM     15  H2  SGN C   3      22.848  83.501  11.523  1.00  0.00     0.175 HD
BRANCH  14  16
HETATM   16  S1  SGN C   3      22.542  83.000  13.796  1.00 27.84     0.205 S 
HETATM   17  O1S SGN C   3      21.263  83.256  14.430  1.00 27.65    -0.578 OA
HETATM   18  O2S SGN C   3      23.692  83.551  14.573  1.00 27.72    -0.578 OA
HETATM   19  O3S SGN C   3      22.734  81.553  13.463  1.00 28.50    -0.578 OA
ENDBRANCH  14  16
ENDBRANCH   9  14
BRANCH  10  20
HETATM   20  O3  SGN C   3      19.670  84.517  12.066  1.00 34.89    -0.391 OA
ATOM     21  H3  SGN C   3      18.882  85.046  12.114  1.00  0.00     0.210 HD
ENDBRANCH  10  20
BRANCH  11  22
HETATM   22  O4  SGN C   3      19.334  86.791  10.229  1.00 37.13    -0.348 OA
BRANCH  22  23
HETATM   23  C1  UAP C   4      18.227  87.601  10.427  1.00 39.64     0.294 C 
HETATM   24  C2  UAP C   4      18.084  87.940  11.900  1.00 38.70     0.228 C 
HETATM   25  C3  UAP C   4      16.811  88.750  12.130  1.00 38.51     0.156 C 
HETATM   26  C4  UAP C   4      16.547  89.870  11.020  1.00 38.14     0.077 C 
HETATM   27  C5  UAP C   4      17.386  89.794   9.899  1.00 38.51     0.228 C 
HETATM   28  O5  UAP C   4      18.430  88.801   9.692  1.00 37.46    -0.343 OA
BRANCH  24  29
HETATM   29  O2  UAP C   4      17.968  86.713  12.690  1.00 40.54    -0.244 OA
BRANCH  29  30
HETATM   30  S   UAP C   4      16.643  85.817  12.632  1.00 40.49     0.252 S 
HETATM   31  O1S UAP C   4      16.603  85.031  13.873  1.00 40.89    -0.572 OA
HETATM   32  O2S UAP C   4      16.766  84.954  11.447  1.00 37.88    -0.572 OA
HETATM   33  O3S UAP C   4      15.501  86.739  12.527  1.00 37.47    -0.572 OA
ENDBRANCH  29  30
ENDBRANCH  24  29
BRANCH  25  34
HETATM   34  O3  UAP C   4      16.879  89.363  13.408  1.00 38.58    -0.393 OA
ATOM     35  H3  UAP C   4      17.778  89.341  13.714  1.00  0.00     0.210 HD
ENDBRANCH  25  34
BRANCH  27  36
HETATM   36  C6  UAP C   4      17.317  90.774   8.780  1.00 37.96     0.203 C 
HETATM   37  O6A UAP C   4      17.263  90.334   7.614  1.00 40.05    -0.646 OA
HETATM   38  O6B UAP C   4      17.318  91.992   9.060  1.00 36.71    -0.646 OA
ENDBRANCH  27  36
ENDBRANCH  22  23
ENDBRANCH  11  22
BRANCH  12  39
HETATM   39  C6  SGN C   3      21.122  89.094  10.827  1.00 42.65     0.227 C 
BRANCH  39  40
HETATM   40  O6  SGN C   3      21.729  89.513   9.585  1.00 51.09    -0.254 OA
BRANCH  40  41
HETATM   41  S2  SGN C   3      22.980  90.497   9.705  1.00 54.80     0.251 S 
HETATM   42  O4S SGN C   3      22.618  91.755   9.028  1.00 54.99    -0.572 OA
HETATM   43  O5S SGN C   3      24.125  89.814   9.031  1.00 53.99    -0.572 OA
HETATM   44  O6S SGN C   3      23.224  90.699  11.127  1.00 55.43    -0.572 OA
ENDBRANCH  40  41
ENDBRANCH  39  40
ENDBRANCH  12  39
ENDBRANCH   7   8
ENDBRANCH   4   7
BRANCH   3  45
HETATM   45  O3  IDS C   2      25.434  88.527  11.403  1.00 39.65    -0.390 OA
ATOM     46  H3  IDS C   2      24.682  88.996  11.744  1.00  0.00     0.210 HD
ENDBRANCH   3  45
BRANCH   5  47
HETATM   47  C6  IDS C   2      25.431  83.689  10.309  1.00 36.10     0.206 C 
HETATM   48  O6A IDS C   2      24.969  82.763  11.011  1.00 32.44    -0.646 OA
HETATM   49  O6B IDS C   2      25.473  83.666   9.055  1.00 33.44    -0.646 OA
ENDBRANCH   5  47
BRANCH   2  50
HETATM   50  O2  IDS C   2      27.121  87.942  13.546  1.00 43.59    -0.244 OA
BRANCH  50  51
HETATM   51  S   IDS C   2      28.330  88.962  13.333  1.00 44.11     0.252 S 
HETATM   52  O1S IDS C   2      29.591  88.145  13.323  1.00 44.48    -0.572 OA
HETATM   53  O2S IDS C   2      28.294  89.919  14.459  1.00 44.29    -0.572 OA
HETATM   54  O3S IDS C   2      28.104  89.622  12.060  1.00 44.74    -0.572 OA
ENDBRANCH  50  51
ENDBRANCH   2  50
BRANCH   1  55
HETATM   55  O4  SGN C   1      28.209  85.079  13.144  1.00 44.73    -0.348 OA
BRANCH  55  56
HETATM   56  C4  SGN C   1      28.548  83.992  14.033  1.00 48.25     0.186 C 
HETATM   57  C3  SGN C   1      29.532  83.042  13.340  1.00 48.43     0.178 C 
HETATM   58  C2  SGN C   1      30.016  81.978  14.324  1.00 48.58     0.181 C 
HETATM   59  C1  SGN C   1      30.573  82.605  15.601  1.00 50.40     0.283 C 
HETATM   60  O5  SGN C   1      29.598  83.475  16.189  1.00 50.82    -0.349 OA
HETATM   61  C5  SGN C   1      29.197  84.551  15.310  1.00 51.58     0.181 C 
BRANCH  57  62
HETATM   62  O3  SGN C   1      28.899  82.409  12.239  1.00 46.09    -0.391 OA
ATOM     63  H3  SGN C   1      29.056  82.918  11.452  1.00  0.00     0.210 HD
ENDBRANCH  57  62
BRANCH  58  64
HETATM   64  N2  SGN C   1      31.028  81.144  13.710  1.00 48.56    -0.289 N 
ATOM     65  H2  SGN C   1      31.885  81.523  13.308  1.00  0.00     0.175 HD
BRANCH  64  66
HETATM   66  S1  SGN C   1      30.681  79.526  13.714  1.00 47.67     0.205 S 
HETATM   67  O1S SGN C   1      29.314  79.383  13.165  1.00 47.59    -0.578 OA
HETATM   68  O2S SGN C   1      30.768  79.111  15.117  1.00 48.55    -0.578 OA
HETATM   69  O3S SGN C   1      31.701  78.872  12.865  1.00 47.08    -0.578 OA
ENDBRANCH  64  66
ENDBRANCH  58  64
BRANCH  59  70
HETATM   70  O1  SGN C   1      31.707  83.347  15.306  1.00 51.36    -0.369 OA
ATOM     71  H1  SGN C   1      31.520  84.274  15.394  1.00  0.00     0.212 HD
ENDBRANCH  59  70
BRANCH  61  72
HETATM   72  C6  SGN C   1      28.260  85.429  16.103  1.00 55.48     0.227 C 
BRANCH  72  73
HETATM   73  O6  SGN C   1      28.805  86.763  16.189  1.00 61.59    -0.254 OA
BRANCH  73  74
HETATM   74  S2  SGN C   1      28.380  87.585  17.486  1.00 65.98     0.251 S 
HETATM   75  O4S SGN C   1      28.720  86.719  18.701  1.00 65.09    -0.572 OA
HETATM   76  O5S SGN C   1      26.952  87.823  17.375  1.00 65.58    -0.572 OA
HETATM   77  O6S SGN C   1      29.194  88.917  17.475  1.00 65.84    -0.572 OA
ENDBRANCH  73  74
ENDBRANCH  72  73
ENDBRANCH  61  72
ENDBRANCH  55  56
ENDBRANCH   1  55
TORSDOF 27
ENDMDL
MODEL 81
REMARK VINA RESULT:      -5.0      5.470     10.080
REMARK  27 active torsions:
REMARK  status: ('A' for Active; 'I' for Inactive)
REMARK    1  A    between atoms: C1_1  and  O1_2 
REMARK    2  A    between atoms: S1_5  and  N2_7 
REMARK    3  A    between atoms: C2_6  and  N2_7 
REMARK    4  A    between atoms: S2_10  and  O6_22 
REMARK    5  A    between atoms: C3_11  and  O3_12 
REMARK    6  A    between atoms: C4_15  and  O4_16 
REMARK    7  A    between atoms: O4_16  and  C1_24 
REMARK    8  A    between atoms: C5_18  and  C6_21 
REMARK    9  A    between atoms: C6_21  and  O6_22 
REMARK   10  A    between atoms: C2_26  and  O2_27 
REMARK   11  A    between atoms: O2_27  and  S_40 
REMARK   12  A    between atoms: C3_29  and  O3_30 
REMARK   13  A    between atoms: C4_33  and  O4_34 
REMARK   14  A    between atoms: O4_34  and  C1_41 
REMARK   15  A    between atoms: C5_35  and  C6_37 
REMARK   16  A    between atoms: S1_43  and  N2_45 
REMARK   17  A    between atoms: C2_44  and  N2_45 
REMARK   18  A    between atoms: S2_48  and  O6_60 
REMARK   19  A    between atoms: C3_49  and  O3_50 
REMARK   20  A    between atoms: C4_53  and  O4_54 
REMARK   21  A    between atoms: O4_54  and  C1_62 
REMARK   22  A    between atoms: C5_56  and  C6_59 
REMARK   23  A    between atoms: C6_59  and  O6_60 
REMARK   24  A    between atoms: C2_64  and  O2_65 
REMARK   25  A    between atoms: O2_65  and  S_77 
REMARK   26  A    between atoms: C3_67  and  O3_68 
REMARK   27  A    between atoms: C5_72  and  C6_74 
ROOT
HETATM    1  C1  IDS C   2      25.866  83.548  12.343  1.00 40.81     0.294 C 
HETATM    2  C2  IDS C   2      26.996  83.687  11.319  1.00 40.20     0.231 C 
HETATM    3  C3  IDS C   2      26.922  82.583  10.268  1.00 39.01     0.185 C 
HETATM    4  C4  IDS C   2      27.042  81.191  10.919  1.00 37.65     0.195 C 
HETATM    5  C5  IDS C   2      26.679  81.278  12.407  1.00 35.99     0.257 C 
HETATM    6  O5  IDS C   2      25.545  82.160  12.581  1.00 39.00    -0.340 OA
ENDROOT
BRANCH   4   7
HETATM    7  O4  IDS C   2      26.159  80.257  10.247  1.00 35.98    -0.348 OA
BRANCH   7   8
HETATM    8  C1  SGN C   3      25.186  80.821   9.411  1.00 35.40     0.287 C 
HETATM    9  C2  SGN C   3      23.956  79.900   9.333  1.00 33.71     0.182 C 
HETATM   10  C3  SGN C   3      24.220  78.644   8.495  1.00 35.79     0.178 C 
HETATM   11  C4  SGN C   3      24.913  78.978   7.163  1.00 36.62     0.186 C 
HETATM   12  C5  SGN C   3      26.104  79.895   7.408  1.00 39.32     0.181 C 
HETATM   13  O5  SGN C   3      25.682  81.078   8.109  1.00 37.58    -0.349 OA
BRANCH   9  14
HETATM   14  N2  SGN C   3      23.570  79.496  10.668  1.00 29.28    -0.289 N 
ATOM     15  H2  SGN C   3      24.261  79.159  11.337  1.00  0.00     0.175 HD
BRANCH  14  16
HETATM   16  S1  SGN C   3      21.971  79.601  11.068  1.00 27.84     0.205 S 
HETATM   17  O1S SGN C   3      21.968  80.118  12.424  1.00 27.65    -0.578 OA
HETATM   18  O2S SGN C   3      21.453  78.203  10.982  1.00 27.72    -0.578 OA
HETATM   19  O3S SGN C   3      21.277  80.516  10.108  1.00 28.50    -0.578 OA
ENDBRANCH  14  16
ENDBRANCH   9  14
BRANCH  10  20
HETATM   20  O3  SGN C   3      22.989  77.968   8.250  1.00 34.89    -0.391 OA
ATOM     21  H3  SGN C   3      23.094  77.375   7.515  1.00  0.00     0.210 HD
ENDBRANCH  10  20
BRANCH  11  22
HETATM   22  O4  SGN C   3      25.389  77.761   6.560  1.00 37.13    -0.348 OA
BRANCH  22  23
HETATM   23  C1  UAP C   4      24.875  77.481   5.303  1.00 39.64     0.294 C 
HETATM   24  C2  UAP C   4      25.582  76.278   4.706  1.00 38.70     0.228 C 
HETATM   25  C3  UAP C   4      25.085  76.030   3.285  1.00 38.51     0.156 C 
HETATM   26  C4  UAP C   4      23.504  76.198   3.114  1.00 38.14     0.077 C 
HETATM   27  C5  UAP C   4      22.851  76.757   4.221  1.00 38.51     0.228 C 
HETATM   28  O5  UAP C   4      23.495  77.180   5.457  1.00 37.46    -0.343 OA
BRANCH  24  29
HETATM   29  O2  UAP C   4      27.022  76.529   4.626  1.00 40.54    -0.244 OA
BRANCH  29  30
HETATM   30  S   UAP C   4      28.078  75.478   5.213  1.00 40.49     0.252 S 
HETATM   31  O1S UAP C   4      29.221  75.457   4.289  1.00 40.89    -0.572 OA
HETATM   32  O2S UAP C   4      27.396  74.176   5.265  1.00 37.88    -0.572 OA
HETATM   33  O3S UAP C   4      28.461  75.954   6.552  1.00 37.47    -0.572 OA
ENDBRANCH  29  30
ENDBRANCH  24  29
BRANCH  25  34
HETATM   34  O3  UAP C   4      25.463  74.722   2.885  1.00 38.58    -0.393 OA
ATOM     35  H3  UAP C   4      25.012  74.504   2.078  1.00  0.00     0.210 HD
ENDBRANCH  25  34
BRANCH  27  36
HETATM   36  C6  UAP C   4      21.375  76.954   4.264  1.00 37.96     0.203 C 
HETATM   37  O6A UAP C   4      20.925  77.883   4.965  1.00 40.05    -0.646 OA
HETATM   38  O6B UAP C   4      20.655  76.179   3.599  1.00 36.71    -0.646 OA
ENDBRANCH  27  36
ENDBRANCH  22  23
ENDBRANCH  11  22
BRANCH  12  39
HETATM   39  C6  SGN C   3      26.802  80.349   6.156  1.00 42.65     0.227 C 
BRANCH  39  40
HETATM   40  O6  SGN C   3      28.131  79.788   6.224  1.00 51.09    -0.254 OA
BRANCH  40  41
HETATM   41  S2  SGN C   3      29.284  80.760   6.746  1.00 54.80     0.251 S 
HETATM   42  O4S SGN C   3      30.495  80.473   5.955  1.00 54.99    -0.572 OA
HETATM   43  O5S SGN C   3      29.481  80.451   8.193  1.00 53.99    -0.572 OA
HETATM   44  O6S SGN C   3      28.814  82.123   6.537  1.00 55.43    -0.572 OA
ENDBRANCH  40  41
ENDBRANCH  39  40
ENDBRANCH  12  39
ENDBRANCH   7   8
ENDBRANCH   4   7
BRANCH   3  45
HETATM   45  O3  IDS C   2      27.963  82.763   9.318  1.00 39.65    -0.390 OA
ATOM     46  H3  IDS C   2      28.671  82.158   9.505  1.00  0.00     0.210 HD
ENDBRANCH   3  45
BRANCH   5  47
HETATM   47  C6  IDS C   2      26.341  79.947  13.066  1.00 36.10     0.206 C 
HETATM   48  O6A IDS C   2      27.291  79.186  13.356  1.00 32.44    -0.646 OA
HETATM   49  O6B IDS C   2      25.137  79.687  13.298  1.00 33.44    -0.646 OA
ENDBRANCH   5  47
BRANCH   2  50
HETATM   50  O2  IDS C   2      26.889  84.972  10.640  1.00 43.59    -0.244 OA
BRANCH  50  51
HETATM   51  S   IDS C   2      28.212  85.719  10.152  1.00 44.11     0.252 S 
HETATM   52  O1S IDS C   2      28.091  87.150  10.593  1.00 44.48    -0.572 OA
HETATM   53  O2S IDS C   2      28.263  85.592   8.680  1.00 44.29    -0.572 OA
HETATM   54  O3S IDS C   2      29.333  85.050  10.789  1.00 44.74    -0.572 OA
ENDBRANCH  50  51
ENDBRANCH   2  50
BRANCH   1  55
HETATM   55  O4  SGN C   1      26.256  84.124  13.544  1.00 44.73    -0.348 OA
BRANCH  55  56
HETATM   56  C4  SGN C   1      27.421  84.979  13.530  1.00 48.25     0.186 C 
HETATM   57  C3  SGN C   1      27.017  86.411  13.901  1.00 48.43     0.178 C 
HETATM   58  C2  SGN C   1      28.262  87.287  14.041  1.00 48.58     0.181 C 
HETATM   59  C1  SGN C   1      29.276  86.672  15.004  1.00 50.40     0.283 C 
HETATM   60  O5  SGN C   1      29.603  85.340  14.590  1.00 50.82    -0.349 OA
HETATM   61  C5  SGN C   1      28.453  84.463  14.546  1.00 51.58     0.181 C 
BRANCH  57  62
HETATM   62  O3  SGN C   1      26.174  86.952  12.896  1.00 46.09    -0.391 OA
ATOM     63  H3  SGN C   1      26.672  87.061  12.094  1.00  0.00     0.210 HD
ENDBRANCH  57  62
BRANCH  58  64
HETATM   64  N2  SGN C   1      27.899  88.613  14.498  1.00 48.56    -0.289 N 
ATOM     65  H2  SGN C   1      27.455  88.782  15.401  1.00  0.00     0.175 HD
BRANCH  64  66
HETATM   66  S1  SGN C   1      28.262  89.829  13.438  1.00 47.67     0.205 S 
HETATM   67  O1S SGN C   1      28.288  91.083  14.222  1.00 47.59    -0.578 OA
HETATM   68  O2S SGN C   1      27.185  89.814  12.442  1.00 48.55    -0.578 OA
HETATM   69  O3S SGN C   1      29.580  89.502  12.853  1.00 47.08    -0.578 OA
ENDBRANCH  64  66
ENDBRANCH  58  64
BRANCH  59  70
HETATM   70  O1  SGN C   1      28.742  86.621  16.283  1.00 51.36    -0.369 OA
ATOM     71  H1  SGN C   1      27.801  86.745  16.245  1.00  0.00     0.212 HD
ENDBRANCH  59  70
BRANCH  61  72
HETATM   72  C6  SGN C   1      28.971  83.089  14.203  1.00 55.48     0.227 C 
BRANCH  72  73
HETATM   73  O6  SGN C   1      30.415  83.093  14.244  1.00 61.59    -0.254 OA
BRANCH  73  74
HETATM   74  S2  SGN C   1      31.058  82.352  15.499  1.00 65.98     0.251 S 
HETATM   75  O4S SGN C   1      30.136  82.605  16.694  1.00 65.09    -0.572 OA
HETATM   76  O5S SGN C   1      32.372  82.936  15.696  1.00 65.58    -0.572 OA
HETATM   77  O6S SGN C   1      31.144  80.834  15.143  1.00 65.84    -0.572 OA
ENDBRANCH  73  74
ENDBRANCH  72  73
ENDBRANCH  61  72
ENDBRANCH  55  56
ENDBRANCH   1  55
TORSDOF 27
ENDMDL
MODEL 82
REMARK VINA RESULT:      -5.0      5.829     12.613
REMARK  27 active torsions:
REMARK  status: ('A' for Active; 'I' for Inactive)
REMARK    1  A    between atoms: C1_1  and  O1_2 
REMARK    2  A    between atoms: S1_5  and  N2_7 
REMARK    3  A    between atoms: C2_6  and  N2_7 
REMARK    4  A    between atoms: S2_10  and  O6_22 
REMARK    5  A    between atoms: C3_11  and  O3_12 
REMARK    6  A    between atoms: C4_15  and  O4_16 
REMARK    7  A    between atoms: O4_16  and  C1_24 
REMARK    8  A    between atoms: C5_18  and  C6_21 
REMARK    9  A    between atoms: C6_21  and  O6_22 
REMARK   10  A    between atoms: C2_26  and  O2_27 
REMARK   11  A    between atoms: O2_27  and  S_40 
REMARK   12  A    between atoms: C3_29  and  O3_30 
REMARK   13  A    between atoms: C4_33  and  O4_34 
REMARK   14  A    between atoms: O4_34  and  C1_41 
REMARK   15  A    between atoms: C5_35  and  C6_37 
REMARK   16  A    between atoms: S1_43  and  N2_45 
REMARK   17  A    between atoms: C2_44  and  N2_45 
REMARK   18  A    between atoms: S2_48  and  O6_60 
REMARK   19  A    between atoms: C3_49  and  O3_50 
REMARK   20  A    between atoms: C4_53  and  O4_54 
REMARK   21  A    between atoms: O4_54  and  C1_62 
REMARK   22  A    between atoms: C5_56  and  C6_59 
REMARK   23  A    between atoms: C6_59  and  O6_60 
REMARK   24  A    between atoms: C2_64  and  O2_65 
REMARK   25  A    between atoms: O2_65  and  S_77 
REMARK   26  A    between atoms: C3_67  and  O3_68 
REMARK   27  A    between atoms: C5_72  and  C6_74 
ROOT
HETATM    1  C1  IDS C   2      26.693  82.124  12.919  1.00 40.81     0.294 C 
HETATM    2  C2  IDS C   2      26.091  80.829  13.470  1.00 40.20     0.231 C 
HETATM    3  C3  IDS C   2      24.809  80.462  12.728  1.00 39.01     0.185 C 
HETATM    4  C4  IDS C   2      23.750  81.573  12.870  1.00 37.65     0.195 C 
HETATM    5  C5  IDS C   2      24.430  82.897  13.241  1.00 35.99     0.257 C 
HETATM    6  O5  IDS C   2      25.660  83.039  12.491  1.00 39.00    -0.340 OA
ENDROOT
BRANCH   4   7
HETATM    7  O4  IDS C   2      23.022  81.720  11.625  1.00 35.98    -0.348 OA
BRANCH   7   8
HETATM    8  C1  SGN C   3      22.004  80.785  11.391  1.00 35.40     0.287 C 
HETATM    9  C2  SGN C   3      22.027  80.333   9.920  1.00 33.71     0.182 C 
HETATM   10  C3  SGN C   3      21.509  81.418   8.969  1.00 35.79     0.178 C 
HETATM   11  C4  SGN C   3      20.199  82.048   9.474  1.00 36.62     0.186 C 
HETATM   12  C5  SGN C   3      20.337  82.437  10.940  1.00 39.32     0.181 C 
HETATM   13  O5  SGN C   3      20.724  81.294  11.722  1.00 37.58    -0.349 OA
BRANCH   9  14
HETATM   14  N2  SGN C   3      23.380  79.990   9.542  1.00 29.28    -0.289 N 
ATOM     15  H2  SGN C   3      24.086  80.711   9.395  1.00  0.00     0.175 HD
BRANCH  14  16
HETATM   16  S1  SGN C   3      23.741  78.389   9.355  1.00 27.84     0.205 S 
HETATM   17  O1S SGN C   3      24.730  78.360   8.294  1.00 27.65    -0.578 OA
HETATM   18  O2S SGN C   3      22.455  77.741   8.963  1.00 27.72    -0.578 OA
HETATM   19  O3S SGN C   3      24.273  77.845  10.645  1.00 28.50    -0.578 OA
ENDBRANCH  14  16
ENDBRANCH   9  14
BRANCH  10  20
HETATM   20  O3  SGN C   3      21.316  80.860   7.672  1.00 34.89    -0.391 OA
ATOM     21  H3  SGN C   3      21.906  81.279   7.056  1.00  0.00     0.210 HD
ENDBRANCH  10  20
BRANCH  11  22
HETATM   22  O4  SGN C   3      19.919  83.234   8.709  1.00 37.13    -0.348 OA
BRANCH  22  23
HETATM   23  C1  UAP C   4      18.626  83.334   8.222  1.00 39.64     0.294 C 
HETATM   24  C2  UAP C   4      18.219  82.036   7.548  1.00 38.70     0.228 C 
HETATM   25  C3  UAP C   4      16.833  82.180   6.927  1.00 38.51     0.156 C 
HETATM   26  C4  UAP C   4      15.789  82.966   7.848  1.00 38.14     0.077 C 
HETATM   27  C5  UAP C   4      16.352  83.592   8.970  1.00 38.51     0.228 C 
HETATM   28  O5  UAP C   4      17.764  83.574   9.327  1.00 37.46    -0.343 OA
BRANCH  24  29
HETATM   29  O2  UAP C   4      19.151  81.718   6.465  1.00 40.54    -0.244 OA
BRANCH  29  30
HETATM   30  S   UAP C   4      19.488  82.791   5.325  1.00 40.49     0.252 S 
HETATM   31  O1S UAP C   4      18.574  83.926   5.522  1.00 40.89    -0.572 OA
HETATM   32  O2S UAP C   4      19.257  82.126   4.035  1.00 37.88    -0.572 OA
HETATM   33  O3S UAP C   4      20.895  83.181   5.501  1.00 37.47    -0.572 OA
ENDBRANCH  29  30
ENDBRANCH  24  29
BRANCH  25  34
HETATM   34  O3  UAP C   4      16.321  80.889   6.636  1.00 38.58    -0.393 OA
ATOM     35  H3  UAP C   4      16.278  80.385   7.440  1.00  0.00     0.210 HD
ENDBRANCH  25  34
BRANCH  27  36
HETATM   36  C6  UAP C   4      15.533  84.338   9.966  1.00 37.96     0.203 C 
HETATM   37  O6A UAP C   4      16.127  85.018  10.825  1.00 40.05    -0.646 OA
HETATM   38  O6B UAP C   4      14.289  84.245   9.896  1.00 36.71    -0.646 OA
ENDBRANCH  27  36
ENDBRANCH  22  23
ENDBRANCH  11  22
BRANCH  12  39
HETATM   39  C6  SGN C   3      19.079  82.987  11.553  1.00 42.65     0.227 C 
BRANCH  39  40
HETATM   40  O6  SGN C   3      19.308  82.988  12.979  1.00 51.09    -0.254 OA
BRANCH  40  41
HETATM   41  S2  SGN C   3      18.699  84.219  13.793  1.00 54.80     0.251 S 
HETATM   42  O4S SGN C   3      17.249  83.990  13.920  1.00 54.99    -0.572 OA
HETATM   43  O5S SGN C   3      19.000  85.446  12.997  1.00 53.99    -0.572 OA
HETATM   44  O6S SGN C   3      19.359  84.235  15.092  1.00 55.43    -0.572 OA
ENDBRANCH  40  41
ENDBRANCH  39  40
ENDBRANCH  12  39
ENDBRANCH   7   8
ENDBRANCH   4   7
BRANCH   3  45
HETATM   45  O3  IDS C   2      24.298  79.239  13.242  1.00 39.65    -0.390 OA
ATOM     46  H3  IDS C   2      23.719  78.844  12.601  1.00  0.00     0.210 HD
ENDBRANCH   3  45
BRANCH   5  47
HETATM   47  C6  IDS C   2      23.589  84.142  12.998  1.00 36.10     0.206 C 
HETATM   48  O6A IDS C   2      24.093  85.058  12.310  1.00 32.44    -0.646 OA
HETATM   49  O6B IDS C   2      22.433  84.184  13.482  1.00 33.44    -0.646 OA
ENDBRANCH   5  47
BRANCH   2  50
HETATM   50  O2  IDS C   2      27.042  79.737  13.306  1.00 43.59    -0.244 OA
BRANCH  50  51
HETATM   51  S   IDS C   2      27.611  78.988  14.595  1.00 44.11     0.252 S 
HETATM   52  O1S IDS C   2      28.610  79.913  15.230  1.00 44.48    -0.572 OA
HETATM   53  O2S IDS C   2      28.235  77.732  14.126  1.00 44.29    -0.572 OA
HETATM   54  O3S IDS C   2      26.480  78.733  15.468  1.00 44.74    -0.572 OA
ENDBRANCH  50  51
ENDBRANCH   2  50
BRANCH   1  55
HETATM   55  O4  SGN C   1      27.448  82.741  13.907  1.00 44.73    -0.348 OA
BRANCH  55  56
HETATM   56  C4  SGN C   1      28.239  83.888  13.528  1.00 48.25     0.186 C 
HETATM   57  C3  SGN C   1      28.402  84.827  14.730  1.00 48.43     0.178 C 
HETATM   58  C2  SGN C   1      29.364  85.961  14.383  1.00 48.58     0.181 C 
HETATM   59  C1  SGN C   1      30.691  85.428  13.845  1.00 50.40     0.283 C 
HETATM   60  O5  SGN C   1      30.457  84.564  12.726  1.00 50.82    -0.349 OA
HETATM   61  C5  SGN C   1      29.628  83.425  13.055  1.00 51.58     0.181 C 
BRANCH  57  62
HETATM   62  O3  SGN C   1      27.143  85.373  15.090  1.00 46.09    -0.391 OA
ATOM     63  H3  SGN C   1      27.106  86.282  14.815  1.00  0.00     0.210 HD
ENDBRANCH  57  62
BRANCH  58  64
HETATM   64  N2  SGN C   1      29.609  86.790  15.545  1.00 48.56    -0.289 N 
ATOM     65  H2  SGN C   1      30.067  86.438  16.387  1.00  0.00     0.175 HD
BRANCH  64  66
HETATM   66  S1  SGN C   1      29.087  88.353  15.398  1.00 47.67     0.205 S 
HETATM   67  O1S SGN C   1      29.013  88.907  16.768  1.00 47.59    -0.578 OA
HETATM   68  O2S SGN C   1      27.772  88.266  14.757  1.00 48.55    -0.578 OA
HETATM   69  O3S SGN C   1      30.083  89.055  14.558  1.00 47.08    -0.578 OA
ENDBRANCH  64  66
ENDBRANCH  58  64
BRANCH  59  70
HETATM   70  O1  SGN C   1      31.345  84.707  14.832  1.00 51.36    -0.369 OA
ATOM     71  H1  SGN C   1      30.994  83.826  14.875  1.00  0.00     0.212 HD
ENDBRANCH  59  70
BRANCH  61  72
HETATM   72  C6  SGN C   1      29.563  82.567  11.816  1.00 55.48     0.227 C 
BRANCH  72  73
HETATM   73  O6  SGN C   1      29.912  81.206  12.153  1.00 61.59    -0.254 OA
BRANCH  73  74
HETATM   74  S2  SGN C   1      29.829  80.168  10.947  1.00 65.98     0.251 S 
HETATM   75  O4S SGN C   1      30.875  80.592   9.914  1.00 65.09    -0.572 OA
HETATM   76  O5S SGN C   1      28.481  80.256  10.418  1.00 65.58    -0.572 OA
HETATM   77  O6S SGN C   1      30.131  78.754  11.536  1.00 65.84    -0.572 OA
ENDBRANCH  73  74
ENDBRANCH  72  73
ENDBRANCH  61  72
ENDBRANCH  55  56
ENDBRANCH   1  55
TORSDOF 27
ENDMDL
MODEL 83
REMARK VINA RESULT:      -5.0      6.320     12.008
REMARK  27 active torsions:
REMARK  status: ('A' for Active; 'I' for Inactive)
REMARK    1  A    between atoms: C1_1  and  O1_2 
REMARK    2  A    between atoms: S1_5  and  N2_7 
REMARK    3  A    between atoms: C2_6  and  N2_7 
REMARK    4  A    between atoms: S2_10  and  O6_22 
REMARK    5  A    between atoms: C3_11  and  O3_12 
REMARK    6  A    between atoms: C4_15  and  O4_16 
REMARK    7  A    between atoms: O4_16  and  C1_24 
REMARK    8  A    between atoms: C5_18  and  C6_21 
REMARK    9  A    between atoms: C6_21  and  O6_22 
REMARK   10  A    between atoms: C2_26  and  O2_27 
REMARK   11  A    between atoms: O2_27  and  S_40 
REMARK   12  A    between atoms: C3_29  and  O3_30 
REMARK   13  A    between atoms: C4_33  and  O4_34 
REMARK   14  A    between atoms: O4_34  and  C1_41 
REMARK   15  A    between atoms: C5_35  and  C6_37 
REMARK   16  A    between atoms: S1_43  and  N2_45 
REMARK   17  A    between atoms: C2_44  and  N2_45 
REMARK   18  A    between atoms: S2_48  and  O6_60 
REMARK   19  A    between atoms: C3_49  and  O3_50 
REMARK   20  A    between atoms: C4_53  and  O4_54 
REMARK   21  A    between atoms: O4_54  and  C1_62 
REMARK   22  A    between atoms: C5_56  and  C6_59 
REMARK   23  A    between atoms: C6_59  and  O6_60 
REMARK   24  A    between atoms: C2_64  and  O2_65 
REMARK   25  A    between atoms: O2_65  and  S_77 
REMARK   26  A    between atoms: C3_67  and  O3_68 
REMARK   27  A    between atoms: C5_72  and  C6_74 
ROOT
HETATM    1  C1  IDS C   2      25.393  82.553  12.532  1.00 40.81     0.294 C 
HETATM    2  C2  IDS C   2      26.258  82.921  11.325  1.00 40.20     0.231 C 
HETATM    3  C3  IDS C   2      25.666  82.361  10.034  1.00 39.01     0.185 C 
HETATM    4  C4  IDS C   2      25.567  80.823  10.093  1.00 37.65     0.195 C 
HETATM    5  C5  IDS C   2      25.586  80.356  11.554  1.00 35.99     0.257 C 
HETATM    6  O5  IDS C   2      24.787  81.252  12.363  1.00 39.00    -0.340 OA
ENDROOT
BRANCH   4   7
HETATM    7  O4  IDS C   2      24.346  80.385   9.448  1.00 35.98    -0.348 OA
BRANCH   7   8
HETATM    8  C1  SGN C   3      23.399  81.383   9.175  1.00 35.40     0.287 C 
HETATM    9  C2  SGN C   3      21.978  80.848   9.425  1.00 33.71     0.182 C 
HETATM   10  C3  SGN C   3      21.529  79.861   8.342  1.00 35.79     0.178 C 
HETATM   11  C4  SGN C   3      21.826  80.385   6.927  1.00 36.62     0.186 C 
HETATM   12  C5  SGN C   3      23.265  80.878   6.843  1.00 39.32     0.181 C 
HETATM   13  O5  SGN C   3      23.506  81.875   7.851  1.00 37.58    -0.349 OA
BRANCH   9  14
HETATM   14  N2  SGN C   3      21.931  80.184  10.709  1.00 29.28    -0.289 N 
ATOM     15  H2  SGN C   3      22.607  79.460  10.954  1.00  0.00     0.175 HD
BRANCH  14  16
HETATM   16  S1  SGN C   3      20.744  80.637  11.763  1.00 27.84     0.205 S 
HETATM   17  O1S SGN C   3      21.391  81.578  12.659  1.00 27.65    -0.578 OA
HETATM   18  O2S SGN C   3      20.328  79.379  12.451  1.00 27.72    -0.578 OA
HETATM   19  O3S SGN C   3      19.614  81.259  11.003  1.00 28.50    -0.578 OA
ENDBRANCH  14  16
ENDBRANCH   9  14
BRANCH  10  20
HETATM   20  O3  SGN C   3      20.134  79.601   8.484  1.00 34.89    -0.391 OA
ATOM     21  H3  SGN C   3      19.795  79.237   7.675  1.00  0.00     0.210 HD
ENDBRANCH  10  20
BRANCH  11  22
HETATM   22  O4  SGN C   3      21.653  79.316   5.980  1.00 37.13    -0.348 OA
BRANCH  22  23
HETATM   23  C1  UAP C   4      20.692  79.536   5.006  1.00 39.64     0.294 C 
HETATM   24  C2  UAP C   4      20.570  78.318   4.107  1.00 38.70     0.228 C 
HETATM   25  C3  UAP C   4      19.583  78.597   2.977  1.00 38.51     0.156 C 
HETATM   26  C4  UAP C   4      18.272  79.384   3.443  1.00 38.14     0.077 C 
HETATM   27  C5  UAP C   4      18.325  79.891   4.749  1.00 38.51     0.228 C 
HETATM   28  O5  UAP C   4      19.450  79.754   5.663  1.00 37.46    -0.343 OA
BRANCH  24  29
HETATM   29  O2  UAP C   4      21.864  78.016   3.491  1.00 40.54    -0.244 OA
BRANCH  29  30
HETATM   30  S   UAP C   4      22.522  76.563   3.624  1.00 40.49     0.252 S 
HETATM   31  O1S UAP C   4      23.443  76.405   2.489  1.00 40.89    -0.572 OA
HETATM   32  O2S UAP C   4      21.420  75.591   3.567  1.00 37.88    -0.572 OA
HETATM   33  O3S UAP C   4      23.226  76.523   4.915  1.00 37.47    -0.572 OA
ENDBRANCH  29  30
ENDBRANCH  24  29
BRANCH  25  34
HETATM   34  O3  UAP C   4      19.205  77.367   2.381  1.00 38.58    -0.393 OA
ATOM     35  H3  UAP C   4      18.469  77.519   1.800  1.00  0.00     0.210 HD
ENDBRANCH  25  34
BRANCH  27  36
HETATM   36  C6  UAP C   4      17.184  80.618   5.373  1.00 37.96     0.203 C 
HETATM   37  O6A UAP C   4      17.269  80.924   6.578  1.00 40.05    -0.646 OA
HETATM   38  O6B UAP C   4      16.193  80.885   4.660  1.00 36.71    -0.646 OA
ENDBRANCH  27  36
ENDBRANCH  22  23
ENDBRANCH  11  22
BRANCH  12  39
HETATM   39  C6  SGN C   3      23.632  81.490   5.519  1.00 42.65     0.227 C 
BRANCH  39  40
HETATM   40  O6  SGN C   3      24.831  80.807   5.092  1.00 51.09    -0.254 OA
BRANCH  40  41
HETATM   41  S2  SGN C   3      26.216  81.465   5.533  1.00 54.80     0.251 S 
HETATM   42  O4S SGN C   3      27.149  81.332   4.399  1.00 54.99    -0.572 OA
HETATM   43  O5S SGN C   3      26.687  80.706   6.730  1.00 53.99    -0.572 OA
HETATM   44  O6S SGN C   3      25.940  82.861   5.845  1.00 55.43    -0.572 OA
ENDBRANCH  40  41
ENDBRANCH  39  40
ENDBRANCH  12  39
ENDBRANCH   7   8
ENDBRANCH   4   7
BRANCH   3  45
HETATM   45  O3  IDS C   2      26.475  82.751   8.933  1.00 39.65    -0.390 OA
ATOM     46  H3  IDS C   2      26.412  82.098   8.247  1.00  0.00     0.210 HD
ENDBRANCH   3  45
BRANCH   5  47
HETATM   47  C6  IDS C   2      25.075  78.940  11.783  1.00 36.10     0.206 C 
HETATM   48  O6A IDS C   2      24.519  78.362  10.823  1.00 32.44    -0.646 OA
HETATM   49  O6B IDS C   2      25.248  78.419  12.911  1.00 33.44    -0.646 OA
ENDBRANCH   5  47
BRANCH   2  50
HETATM   50  O2  IDS C   2      26.335  84.371  11.200  1.00 43.59    -0.244 OA
BRANCH  50  51
HETATM   51  S   IDS C   2      27.658  85.043  10.611  1.00 44.11     0.252 S 
HETATM   52  O1S IDS C   2      28.717  83.978  10.599  1.00 44.48    -0.572 OA
HETATM   53  O2S IDS C   2      28.008  86.167  11.505  1.00 44.29    -0.572 OA
HETATM   54  O3S IDS C   2      27.337  85.501   9.271  1.00 44.74    -0.572 OA
ENDBRANCH  50  51
ENDBRANCH   2  50
BRANCH   1  55
HETATM   55  O4  SGN C   1      26.180  82.529  13.675  1.00 44.73    -0.348 OA
BRANCH  55  56
HETATM   56  C4  SGN C   1      27.486  83.140  13.602  1.00 48.25     0.186 C 
HETATM   57  C3  SGN C   1      27.548  84.348  14.544  1.00 48.43     0.178 C 
HETATM   58  C2  SGN C   1      28.970  84.906  14.590  1.00 48.58     0.181 C 
HETATM   59  C1  SGN C   1      29.988  83.819  14.929  1.00 50.40     0.283 C 
HETATM   60  O5  SGN C   1      29.871  82.728  14.007  1.00 50.82    -0.349 OA
HETATM   61  C5  SGN C   1      28.559  82.119  14.017  1.00 51.58     0.181 C 
BRANCH  57  62
HETATM   62  O3  SGN C   1      26.662  85.360  14.091  1.00 46.09    -0.391 OA
ATOM     63  H3  SGN C   1      26.910  86.191  14.480  1.00  0.00     0.210 HD
ENDBRANCH  57  62
BRANCH  58  64
HETATM   64  N2  SGN C   1      29.061  85.978  15.560  1.00 48.56    -0.289 N 
ATOM     65  H2  SGN C   1      28.984  85.820  16.565  1.00  0.00     0.175 HD
BRANCH  64  66
HETATM   66  S1  SGN C   1      29.301  87.478  14.906  1.00 47.67     0.205 S 
HETATM   67  O1S SGN C   1      29.859  88.327  15.982  1.00 47.59    -0.578 OA
HETATM   68  O2S SGN C   1      27.976  87.929  14.469  1.00 48.55    -0.578 OA
HETATM   69  O3S SGN C   1      30.242  87.304  13.779  1.00 47.08    -0.578 OA
ENDBRANCH  64  66
ENDBRANCH  58  64
BRANCH  59  70
HETATM   70  O1  SGN C   1      29.760  83.342  16.211  1.00 51.36    -0.369 OA
ATOM     71  H1  SGN C   1      30.452  83.634  16.793  1.00  0.00     0.212 HD
ENDBRANCH  59  70
BRANCH  61  72
HETATM   72  C6  SGN C   1      28.627  80.935  13.084  1.00 55.48     0.227 C 
BRANCH  72  73
HETATM   73  O6  SGN C   1      30.007  80.571  12.866  1.00 61.59    -0.254 OA
BRANCH  73  74
HETATM   74  S2  SGN C   1      30.402  79.101  13.336  1.00 65.98     0.251 S 
HETATM   75  O4S SGN C   1      29.097  78.335  13.566  1.00 65.09    -0.572 OA
HETATM   76  O5S SGN C   1      31.164  79.249  14.563  1.00 65.58    -0.572 OA
HETATM   77  O6S SGN C   1      31.256  78.466  12.194  1.00 65.84    -0.572 OA
ENDBRANCH  73  74
ENDBRANCH  72  73
ENDBRANCH  61  72
ENDBRANCH  55  56
ENDBRANCH   1  55
TORSDOF 27
ENDMDL
MODEL 84
REMARK VINA RESULT:      -5.0      5.611     12.308
REMARK  27 active torsions:
REMARK  status: ('A' for Active; 'I' for Inactive)
REMARK    1  A    between atoms: C1_1  and  O1_2 
REMARK    2  A    between atoms: S1_5  and  N2_7 
REMARK    3  A    between atoms: C2_6  and  N2_7 
REMARK    4  A    between atoms: S2_10  and  O6_22 
REMARK    5  A    between atoms: C3_11  and  O3_12 
REMARK    6  A    between atoms: C4_15  and  O4_16 
REMARK    7  A    between atoms: O4_16  and  C1_24 
REMARK    8  A    between atoms: C5_18  and  C6_21 
REMARK    9  A    between atoms: C6_21  and  O6_22 
REMARK   10  A    between atoms: C2_26  and  O2_27 
REMARK   11  A    between atoms: O2_27  and  S_40 
REMARK   12  A    between atoms: C3_29  and  O3_30 
REMARK   13  A    between atoms: C4_33  and  O4_34 
REMARK   14  A    between atoms: O4_34  and  C1_41 
REMARK   15  A    between atoms: C5_35  and  C6_37 
REMARK   16  A    between atoms: S1_43  and  N2_45 
REMARK   17  A    between atoms: C2_44  and  N2_45 
REMARK   18  A    between atoms: S2_48  and  O6_60 
REMARK   19  A    between atoms: C3_49  and  O3_50 
REMARK   20  A    between atoms: C4_53  and  O4_54 
REMARK   21  A    between atoms: O4_54  and  C1_62 
REMARK   22  A    between atoms: C5_56  and  C6_59 
REMARK   23  A    between atoms: C6_59  and  O6_60 
REMARK   24  A    between atoms: C2_64  and  O2_65 
REMARK   25  A    between atoms: O2_65  and  S_77 
REMARK   26  A    between atoms: C3_67  and  O3_68 
REMARK   27  A    between atoms: C5_72  and  C6_74 
ROOT
HETATM    1  C1  IDS C   2      26.240  84.779  13.064  1.00 40.81     0.294 C 
HETATM    2  C2  IDS C   2      25.917  85.912  12.087  1.00 40.20     0.231 C 
HETATM    3  C3  IDS C   2      24.541  85.718  11.458  1.00 39.01     0.185 C 
HETATM    4  C4  IDS C   2      24.472  84.388  10.679  1.00 37.65     0.195 C 
HETATM    5  C5  IDS C   2      25.566  83.436  11.177  1.00 35.99     0.257 C 
HETATM    6  O5  IDS C   2      25.673  83.528  12.618  1.00 39.00    -0.340 OA
ENDROOT
BRANCH   4   7
HETATM    7  O4  IDS C   2      23.167  83.782  10.856  1.00 35.98    -0.348 OA
BRANCH   7   8
HETATM    8  C1  SGN C   3      22.097  84.423  10.215  1.00 35.40     0.287 C 
HETATM    9  C2  SGN C   3      20.779  83.693  10.527  1.00 33.71     0.182 C 
HETATM   10  C3  SGN C   3      20.666  82.353   9.791  1.00 35.79     0.178 C 
HETATM   11  C4  SGN C   3      21.045  82.480   8.305  1.00 36.62     0.186 C 
HETATM   12  C5  SGN C   3      22.367  83.225   8.165  1.00 39.32     0.181 C 
HETATM   13  O5  SGN C   3      22.285  84.506   8.813  1.00 37.58    -0.349 OA
BRANCH   9  14
HETATM   14  N2  SGN C   3      20.687  83.451  11.950  1.00 29.28    -0.289 N 
ATOM     15  H2  SGN C   3      21.129  82.637  12.377  1.00  0.00     0.175 HD
BRANCH  14  16
HETATM   16  S1  SGN C   3      19.839  84.539  12.859  1.00 27.84     0.205 S 
HETATM   17  O1S SGN C   3      19.063  85.294  11.893  1.00 27.65    -0.578 OA
HETATM   18  O2S SGN C   3      20.874  85.369  13.544  1.00 27.72    -0.578 OA
HETATM   19  O3S SGN C   3      18.974  83.805  13.836  1.00 28.50    -0.578 OA
ENDBRANCH  14  16
ENDBRANCH   9  14
BRANCH  10  20
HETATM   20  O3  SGN C   3      19.337  81.853   9.915  1.00 34.89    -0.391 OA
ATOM     21  H3  SGN C   3      18.888  81.936   9.081  1.00  0.00     0.210 HD
ENDBRANCH  10  20
BRANCH  11  22
HETATM   22  O4  SGN C   3      21.199  81.165   7.743  1.00 37.13    -0.348 OA
BRANCH  22  23
HETATM   23  C1  UAP C   4      20.399  80.893   6.644  1.00 39.64     0.294 C 
HETATM   24  C2  UAP C   4      20.699  79.504   6.110  1.00 38.70     0.228 C 
HETATM   25  C3  UAP C   4      19.890  79.243   4.843  1.00 38.51     0.156 C 
HETATM   26  C4  UAP C   4      18.380  79.763   4.921  1.00 38.14     0.077 C 
HETATM   27  C5  UAP C   4      18.093  80.568   6.034  1.00 38.51     0.228 C 
HETATM   28  O5  UAP C   4      19.044  80.945   7.070  1.00 37.46    -0.343 OA
BRANCH  24  29
HETATM   29  O2  UAP C   4      22.115  79.398   5.752  1.00 40.54    -0.244 OA
BRANCH  29  30
HETATM   30  S   UAP C   4      23.010  78.179   6.277  1.00 40.49     0.252 S 
HETATM   31  O1S UAP C   4      22.456  77.770   7.576  1.00 40.89    -0.572 OA
HETATM   32  O2S UAP C   4      24.383  78.688   6.410  1.00 37.88    -0.572 OA
HETATM   33  O3S UAP C   4      22.912  77.107   5.275  1.00 37.47    -0.572 OA
ENDBRANCH  29  30
ENDBRANCH  24  29
BRANCH  25  34
HETATM   34  O3  UAP C   4      19.892  77.851   4.572  1.00 38.58    -0.393 OA
ATOM     35  H3  UAP C   4      19.733  77.716   3.645  1.00  0.00     0.210 HD
ENDBRANCH  25  34
BRANCH  27  36
HETATM   36  C6  UAP C   4      16.733  81.112   6.299  1.00 37.96     0.203 C 
HETATM   37  O6A UAP C   4      16.596  81.926   7.233  1.00 40.05    -0.646 OA
HETATM   38  O6B UAP C   4      15.790  80.726   5.575  1.00 36.71    -0.646 OA
ENDBRANCH  27  36
ENDBRANCH  22  23
ENDBRANCH  11  22
BRANCH  12  39
HETATM   39  C6  SGN C   3      22.786  83.475   6.743  1.00 42.65     0.227 C 
BRANCH  39  40
HETATM   40  O6  SGN C   3      24.091  82.871   6.608  1.00 51.09    -0.254 OA
BRANCH  40  41
HETATM   41  S2  SGN C   3      25.294  83.856   6.249  1.00 54.80     0.251 S 
HETATM   42  O4S SGN C   3      26.009  84.155   7.503  1.00 54.99    -0.572 OA
HETATM   43  O5S SGN C   3      24.679  85.082   5.657  1.00 53.99    -0.572 OA
HETATM   44  O6S SGN C   3      26.144  83.156   5.295  1.00 55.43    -0.572 OA
ENDBRANCH  40  41
ENDBRANCH  39  40
ENDBRANCH  12  39
ENDBRANCH   7   8
ENDBRANCH   4   7
BRANCH   3  45
HETATM   45  O3  IDS C   2      24.261  86.803  10.584  1.00 39.65    -0.390 OA
ATOM     46  H3  IDS C   2      24.407  86.533   9.686  1.00  0.00     0.210 HD
ENDBRANCH   3  45
BRANCH   5  47
HETATM   47  C6  IDS C   2      25.356  81.971  10.818  1.00 36.10     0.206 C 
HETATM   48  O6A IDS C   2      25.214  81.685   9.608  1.00 32.44    -0.646 OA
HETATM   49  O6B IDS C   2      25.351  81.125  11.744  1.00 33.44    -0.646 OA
ENDBRANCH   5  47
BRANCH   2  50
HETATM   50  O2  IDS C   2      25.919  87.186  12.795  1.00 43.59    -0.244 OA
BRANCH  50  51
HETATM   51  S   IDS C   2      26.933  88.335  12.348  1.00 44.11     0.252 S 
HETATM   52  O1S IDS C   2      26.759  89.469  13.319  1.00 44.48    -0.572 OA
HETATM   53  O2S IDS C   2      26.569  88.722  10.969  1.00 44.29    -0.572 OA
HETATM   54  O3S IDS C   2      28.268  87.768  12.413  1.00 44.74    -0.572 OA
ENDBRANCH  50  51
ENDBRANCH   2  50
BRANCH   1  55
HETATM   55  O4  SGN C   1      27.616  84.631  13.163  1.00 44.73    -0.348 OA
BRANCH  55  56
HETATM   56  C4  SGN C   1      28.127  83.810  14.236  1.00 48.25     0.186 C 
HETATM   57  C3  SGN C   1      29.028  82.709  13.663  1.00 48.43     0.178 C 
HETATM   58  C2  SGN C   1      29.695  81.934  14.799  1.00 48.58     0.181 C 
HETATM   59  C1  SGN C   1      30.417  82.868  15.768  1.00 50.40     0.283 C 
HETATM   60  O5  SGN C   1      29.512  83.864  16.260  1.00 50.82    -0.349 OA
HETATM   61  C5  SGN C   1      28.943  84.678  15.209  1.00 51.58     0.181 C 
BRANCH  57  62
HETATM   62  O3  SGN C   1      28.258  81.815  12.875  1.00 46.09    -0.391 OA
ATOM     63  H3  SGN C   1      27.655  81.341  13.436  1.00  0.00     0.210 HD
ENDBRANCH  57  62
BRANCH  58  64
HETATM   64  N2  SGN C   1      30.631  80.965  14.268  1.00 48.56    -0.289 N 
ATOM     65  H2  SGN C   1      31.379  81.218  13.621  1.00  0.00     0.175 HD
BRANCH  64  66
HETATM   66  S1  SGN C   1      30.390  79.415  14.794  1.00 47.67     0.205 S 
HETATM   67  O1S SGN C   1      31.581  78.637  14.387  1.00 47.59    -0.578 OA
HETATM   68  O2S SGN C   1      29.168  78.961  14.124  1.00 48.55    -0.578 OA
HETATM   69  O3S SGN C   1      30.239  79.486  16.264  1.00 47.08    -0.578 OA
ENDBRANCH  64  66
ENDBRANCH  58  64
BRANCH  59  70
HETATM   70  O1  SGN C   1      31.465  83.503  15.118  1.00 51.36    -0.369 OA
ATOM     71  H1  SGN C   1      31.363  83.415  14.178  1.00  0.00     0.212 HD
ENDBRANCH  59  70
BRANCH  61  72
HETATM   72  C6  SGN C   1      28.106  85.734  15.887  1.00 55.48     0.227 C 
BRANCH  72  73
HETATM   73  O6  SGN C   1      28.555  85.904  17.249  1.00 61.59    -0.254 OA
BRANCH  73  74
HETATM   74  S2  SGN C   1      28.344  87.364  17.853  1.00 65.98     0.251 S 
HETATM   75  O4S SGN C   1      29.506  88.229  17.359  1.00 65.09    -0.572 OA
HETATM   76  O5S SGN C   1      28.354  87.219  19.297  1.00 65.58    -0.572 OA
HETATM   77  O6S SGN C   1      26.968  87.884  17.331  1.00 65.84    -0.572 OA
ENDBRANCH  73  74
ENDBRANCH  72  73
ENDBRANCH  61  72
ENDBRANCH  55  56
ENDBRANCH   1  55
TORSDOF 27
ENDMDL
MODEL 85
REMARK VINA RESULT:      -5.0      6.240      9.909
REMARK  27 active torsions:
REMARK  status: ('A' for Active; 'I' for Inactive)
REMARK    1  A    between atoms: C1_1  and  O1_2 
REMARK    2  A    between atoms: S1_5  and  N2_7 
REMARK    3  A    between atoms: C2_6  and  N2_7 
REMARK    4  A    between atoms: S2_10  and  O6_22 
REMARK    5  A    between atoms: C3_11  and  O3_12 
REMARK    6  A    between atoms: C4_15  and  O4_16 
REMARK    7  A    between atoms: O4_16  and  C1_24 
REMARK    8  A    between atoms: C5_18  and  C6_21 
REMARK    9  A    between atoms: C6_21  and  O6_22 
REMARK   10  A    between atoms: C2_26  and  O2_27 
REMARK   11  A    between atoms: O2_27  and  S_40 
REMARK   12  A    between atoms: C3_29  and  O3_30 
REMARK   13  A    between atoms: C4_33  and  O4_34 
REMARK   14  A    between atoms: O4_34  and  C1_41 
REMARK   15  A    between atoms: C5_35  and  C6_37 
REMARK   16  A    between atoms: S1_43  and  N2_45 
REMARK   17  A    between atoms: C2_44  and  N2_45 
REMARK   18  A    between atoms: S2_48  and  O6_60 
REMARK   19  A    between atoms: C3_49  and  O3_50 
REMARK   20  A    between atoms: C4_53  and  O4_54 
REMARK   21  A    between atoms: O4_54  and  C1_62 
REMARK   22  A    between atoms: C5_56  and  C6_59 
REMARK   23  A    between atoms: C6_59  and  O6_60 
REMARK   24  A    between atoms: C2_64  and  O2_65 
REMARK   25  A    between atoms: O2_65  and  S_77 
REMARK   26  A    between atoms: C3_67  and  O3_68 
REMARK   27  A    between atoms: C5_72  and  C6_74 
ROOT
HETATM    1  C1  IDS C   2      22.267  80.392   8.134  1.00 40.81     0.294 C 
HETATM    2  C2  IDS C   2      23.536  80.010   7.369  1.00 40.20     0.231 C 
HETATM    3  C3  IDS C   2      24.786  80.328   8.185  1.00 39.01     0.185 C 
HETATM    4  C4  IDS C   2      24.865  81.834   8.510  1.00 37.65     0.195 C 
HETATM    5  C5  IDS C   2      23.473  82.466   8.393  1.00 35.99     0.257 C 
HETATM    6  O5  IDS C   2      22.481  81.567   8.946  1.00 39.00    -0.340 OA
ENDROOT
BRANCH   4   7
HETATM    7  O4  IDS C   2      25.384  82.020   9.851  1.00 35.98    -0.348 OA
BRANCH   7   8
HETATM    8  C1  SGN C   3      25.498  80.862  10.634  1.00 35.40     0.287 C 
HETATM    9  C2  SGN C   3      25.240  81.197  12.114  1.00 33.71     0.182 C 
HETATM   10  C3  SGN C   3      26.402  81.970  12.748  1.00 35.79     0.178 C 
HETATM   11  C4  SGN C   3      27.763  81.336  12.415  1.00 36.62     0.186 C 
HETATM   12  C5  SGN C   3      27.862  81.065  10.919  1.00 39.32     0.181 C 
HETATM   13  O5  SGN C   3      26.763  80.241  10.491  1.00 37.58    -0.349 OA
BRANCH   9  14
HETATM   14  N2  SGN C   3      24.036  81.991  12.227  1.00 29.28    -0.289 N 
ATOM     15  H2  SGN C   3      23.957  82.897  11.764  1.00  0.00     0.175 HD
BRANCH  14  16
HETATM   16  S1  SGN C   3      22.797  81.381  13.131  1.00 27.84     0.205 S 
HETATM   17  O1S SGN C   3      22.229  80.329  12.308  1.00 27.65    -0.578 OA
HETATM   18  O2S SGN C   3      21.858  82.524  13.333  1.00 27.72    -0.578 OA
HETATM   19  O3S SGN C   3      23.335  80.862  14.428  1.00 28.50    -0.578 OA
ENDBRANCH  14  16
ENDBRANCH   9  14
BRANCH  10  20
HETATM   20  O3  SGN C   3      26.221  82.025  14.161  1.00 34.89    -0.391 OA
ATOM     21  H3  SGN C   3      26.951  82.489  14.556  1.00  0.00     0.210 HD
ENDBRANCH  10  20
BRANCH  11  22
HETATM   22  O4  SGN C   3      28.813  82.248  12.785  1.00 37.13    -0.348 OA
BRANCH  22  23
HETATM   23  C1  UAP C   4      29.711  81.768  13.726  1.00 39.64     0.294 C 
HETATM   24  C2  UAP C   4      29.589  82.560  15.015  1.00 38.70     0.228 C 
HETATM   25  C3  UAP C   4      30.644  82.096  16.016  1.00 38.51     0.156 C 
HETATM   26  C4  UAP C   4      30.838  80.510  16.064  1.00 38.14     0.077 C 
HETATM   27  C5  UAP C   4      30.185  79.808  15.040  1.00 38.51     0.228 C 
HETATM   28  O5  UAP C   4      29.385  80.409  13.983  1.00 37.46    -0.343 OA
BRANCH  24  29
HETATM   29  O2  UAP C   4      29.829  83.981  14.757  1.00 40.54    -0.244 OA
BRANCH  29  30
HETATM   30  S   UAP C   4      28.734  85.085  15.139  1.00 40.49     0.252 S 
HETATM   31  O1S UAP C   4      29.348  86.399  14.895  1.00 40.89    -0.572 OA
HETATM   32  O2S UAP C   4      28.415  84.892  16.561  1.00 37.88    -0.572 OA
HETATM   33  O3S UAP C   4      27.567  84.853  14.274  1.00 37.47    -0.572 OA
ENDBRANCH  29  30
ENDBRANCH  24  29
BRANCH  25  34
HETATM   34  O3  UAP C   4      30.292  82.565  17.308  1.00 38.58    -0.393 OA
ATOM     35  H3  UAP C   4      29.346  82.562  17.391  1.00  0.00     0.210 HD
ENDBRANCH  25  34
BRANCH  27  36
HETATM   36  C6  UAP C   4      30.216  78.322  14.943  1.00 37.96     0.203 C 
HETATM   37  O6A UAP C   4      30.232  77.807  13.808  1.00 40.05    -0.646 OA
HETATM   38  O6B UAP C   4      30.223  77.660  16.003  1.00 36.71    -0.646 OA
ENDBRANCH  27  36
ENDBRANCH  22  23
ENDBRANCH  11  22
BRANCH  12  39
HETATM   39  C6  SGN C   3      29.126  80.367  10.500  1.00 42.65     0.227 C 
BRANCH  39  40
HETATM   40  O6  SGN C   3      29.075  80.297   9.059  1.00 51.09    -0.254 OA
BRANCH  40  41
HETATM   41  S2  SGN C   3      29.382  78.873   8.407  1.00 54.80     0.251 S 
HETATM   42  O4S SGN C   3      28.087  78.255   8.068  1.00 54.99    -0.572 OA
HETATM   43  O5S SGN C   3      30.120  78.083   9.437  1.00 53.99    -0.572 OA
HETATM   44  O6S SGN C   3      30.192  79.116   7.221  1.00 55.43    -0.572 OA
ENDBRANCH  40  41
ENDBRANCH  39  40
ENDBRANCH  12  39
ENDBRANCH   7   8
ENDBRANCH   4   7
BRANCH   3  45
HETATM   45  O3  IDS C   2      25.941  79.930   7.459  1.00 39.65    -0.390 OA
ATOM     46  H3  IDS C   2      25.771  79.104   7.022  1.00  0.00     0.210 HD
ENDBRANCH   3  45
BRANCH   5  47
HETATM   47  C6  IDS C   2      23.318  83.814   9.085  1.00 36.10     0.206 C 
HETATM   48  O6A IDS C   2      22.604  83.861  10.111  1.00 32.44    -0.646 OA
HETATM   49  O6B IDS C   2      23.923  84.802   8.605  1.00 33.44    -0.646 OA
ENDBRANCH   5  47
BRANCH   2  50
HETATM   50  O2  IDS C   2      23.528  78.581   7.086  1.00 43.59    -0.244 OA
BRANCH  50  51
HETATM   51  S   IDS C   2      24.137  78.044   5.712  1.00 44.11     0.252 S 
HETATM   52  O1S IDS C   2      24.191  79.217   4.774  1.00 44.48    -0.572 OA
HETATM   53  O2S IDS C   2      23.234  76.981   5.223  1.00 44.29    -0.572 OA
HETATM   54  O3S IDS C   2      25.462  77.530   6.010  1.00 44.74    -0.572 OA
ENDBRANCH  50  51
ENDBRANCH   2  50
BRANCH   1  55
HETATM   55  O4  SGN C   1      21.246  80.658   7.233  1.00 44.73    -0.348 OA
BRANCH  55  56
HETATM   56  C4  SGN C   1      19.887  80.563   7.713  1.00 48.25     0.186 C 
HETATM   57  C3  SGN C   1      19.295  81.968   7.879  1.00 48.43     0.178 C 
HETATM   58  C2  SGN C   1      17.813  81.875   8.236  1.00 48.58     0.181 C 
HETATM   59  C1  SGN C   1      17.048  81.007   7.238  1.00 50.40     0.283 C 
HETATM   60  O5  SGN C   1      17.658  79.714   7.141  1.00 50.82    -0.349 OA
HETATM   61  C5  SGN C   1      19.036  79.770   6.707  1.00 51.58     0.181 C 
BRANCH  57  62
HETATM   62  O3  SGN C   1      19.982  82.664   8.906  1.00 46.09    -0.391 OA
ATOM     63  H3  SGN C   1      19.765  83.588   8.860  1.00  0.00     0.210 HD
ENDBRANCH  57  62
BRANCH  58  64
HETATM   64  N2  SGN C   1      17.220  83.196   8.286  1.00 48.56    -0.289 N 
ATOM     65  H2  SGN C   1      17.127  83.789   7.462  1.00  0.00     0.175 HD
BRANCH  64  66
HETATM   66  S1  SGN C   1      16.708  83.663   9.788  1.00 47.67     0.205 S 
HETATM   67  O1S SGN C   1      17.557  82.951  10.768  1.00 47.59    -0.578 OA
HETATM   68  O2S SGN C   1      15.301  83.255   9.865  1.00 48.55    -0.578 OA
HETATM   69  O3S SGN C   1      16.878  85.131   9.855  1.00 47.08    -0.578 OA
ENDBRANCH  64  66
ENDBRANCH  58  64
BRANCH  59  70
HETATM   70  O1  SGN C   1      17.066  81.601   5.985  1.00 51.36    -0.369 OA
ATOM     71  H1  SGN C   1      17.403  82.487   6.052  1.00  0.00     0.212 HD
ENDBRANCH  59  70
BRANCH  61  72
HETATM   72  C6  SGN C   1      19.498  78.343   6.552  1.00 55.48     0.227 C 
BRANCH  72  73
HETATM   73  O6  SGN C   1      20.140  78.179   5.269  1.00 61.59    -0.254 OA
BRANCH  73  74
HETATM   74  S2  SGN C   1      19.374  77.228   4.245  1.00 65.98     0.251 S 
HETATM   75  O4S SGN C   1      20.437  76.542   3.384  1.00 65.09    -0.572 OA
HETATM   76  O5S SGN C   1      18.508  78.084   3.455  1.00 65.58    -0.572 OA
HETATM   77  O6S SGN C   1      18.559  76.202   5.093  1.00 65.84    -0.572 OA
ENDBRANCH  73  74
ENDBRANCH  72  73
ENDBRANCH  61  72
ENDBRANCH  55  56
ENDBRANCH   1  55
TORSDOF 27
ENDMDL
MODEL 86
REMARK VINA RESULT:      -5.0      5.875     13.068
REMARK  27 active torsions:
REMARK  status: ('A' for Active; 'I' for Inactive)
REMARK    1  A    between atoms: C1_1  and  O1_2 
REMARK    2  A    between atoms: S1_5  and  N2_7 
REMARK    3  A    between atoms: C2_6  and  N2_7 
REMARK    4  A    between atoms: S2_10  and  O6_22 
REMARK    5  A    between atoms: C3_11  and  O3_12 
REMARK    6  A    between atoms: C4_15  and  O4_16 
REMARK    7  A    between atoms: O4_16  and  C1_24 
REMARK    8  A    between atoms: C5_18  and  C6_21 
REMARK    9  A    between atoms: C6_21  and  O6_22 
REMARK   10  A    between atoms: C2_26  and  O2_27 
REMARK   11  A    between atoms: O2_27  and  S_40 
REMARK   12  A    between atoms: C3_29  and  O3_30 
REMARK   13  A    between atoms: C4_33  and  O4_34 
REMARK   14  A    between atoms: O4_34  and  C1_41 
REMARK   15  A    between atoms: C5_35  and  C6_37 
REMARK   16  A    between atoms: S1_43  and  N2_45 
REMARK   17  A    between atoms: C2_44  and  N2_45 
REMARK   18  A    between atoms: S2_48  and  O6_60 
REMARK   19  A    between atoms: C3_49  and  O3_50 
REMARK   20  A    between atoms: C4_53  and  O4_54 
REMARK   21  A    between atoms: O4_54  and  C1_62 
REMARK   22  A    between atoms: C5_56  and  C6_59 
REMARK   23  A    between atoms: C6_59  and  O6_60 
REMARK   24  A    between atoms: C2_64  and  O2_65 
REMARK   25  A    between atoms: O2_65  and  S_77 
REMARK   26  A    between atoms: C3_67  and  O3_68 
REMARK   27  A    between atoms: C5_72  and  C6_74 
ROOT
HETATM    1  C1  IDS C   2      26.285  83.829  12.892  1.00 40.81     0.294 C 
HETATM    2  C2  IDS C   2      25.888  84.984  11.970  1.00 40.20     0.231 C 
HETATM    3  C3  IDS C   2      24.512  84.747  11.355  1.00 39.01     0.185 C 
HETATM    4  C4  IDS C   2      24.495  83.450  10.521  1.00 37.65     0.195 C 
HETATM    5  C5  IDS C   2      25.644  82.533  10.960  1.00 35.99     0.257 C 
HETATM    6  O5  IDS C   2      25.773  82.570  12.402  1.00 39.00    -0.340 OA
ENDROOT
BRANCH   4   7
HETATM    7  O4  IDS C   2      23.226  82.772  10.694  1.00 35.98    -0.348 OA
BRANCH   7   8
HETATM    8  C1  SGN C   3      22.396  83.265  11.710  1.00 35.40     0.287 C 
HETATM    9  C2  SGN C   3      21.413  82.174  12.169  1.00 33.71     0.182 C 
HETATM   10  C3  SGN C   3      20.311  81.911  11.136  1.00 35.79     0.178 C 
HETATM   11  C4  SGN C   3      19.691  83.218  10.613  1.00 36.62     0.186 C 
HETATM   12  C5  SGN C   3      20.789  84.192  10.203  1.00 39.32     0.181 C 
HETATM   13  O5  SGN C   3      21.683  84.421  11.307  1.00 37.58    -0.349 OA
BRANCH   9  14
HETATM   14  N2  SGN C   3      22.134  80.942  12.402  1.00 29.28    -0.289 N 
ATOM     15  H2  SGN C   3      22.793  80.855  13.176  1.00  0.00     0.175 HD
BRANCH  14  16
HETATM   16  S1  SGN C   3      21.852  79.682  11.373  1.00 27.84     0.205 S 
HETATM   17  O1S SGN C   3      21.543  80.311  10.102  1.00 27.65    -0.578 OA
HETATM   18  O2S SGN C   3      20.686  78.953  11.955  1.00 27.72    -0.578 OA
HETATM   19  O3S SGN C   3      23.072  78.817  11.298  1.00 28.50    -0.578 OA
ENDBRANCH  14  16
ENDBRANCH   9  14
BRANCH  10  20
HETATM   20  O3  SGN C   3      19.301  81.089  11.716  1.00 34.89    -0.391 OA
ATOM     21  H3  SGN C   3      18.523  81.610  11.878  1.00  0.00     0.210 HD
ENDBRANCH  10  20
BRANCH  11  22
HETATM   22  O4  SGN C   3      18.882  82.929   9.458  1.00 37.13    -0.348 OA
BRANCH  22  23
HETATM   23  C1  UAP C   4      17.590  83.429   9.499  1.00 39.64     0.294 C 
HETATM   24  C2  UAP C   4      16.874  83.133   8.193  1.00 38.70     0.228 C 
HETATM   25  C3  UAP C   4      15.487  83.768   8.201  1.00 38.51     0.156 C 
HETATM   26  C4  UAP C   4      14.713  83.615   9.591  1.00 38.14     0.077 C 
HETATM   27  C5  UAP C   4      15.496  83.130  10.648  1.00 38.51     0.228 C 
HETATM   28  O5  UAP C   4      16.906  82.777  10.561  1.00 37.46    -0.343 OA
BRANCH  24  29
HETATM   29  O2  UAP C   4      17.613  83.715   7.071  1.00 40.54    -0.244 OA
BRANCH  29  30
HETATM   30  S   UAP C   4      18.044  82.822   5.814  1.00 40.49     0.252 S 
HETATM   31  O1S UAP C   4      19.212  82.032   6.231  1.00 40.89    -0.572 OA
HETATM   32  O2S UAP C   4      18.379  83.753   4.727  1.00 37.88    -0.572 OA
HETATM   33  O3S UAP C   4      16.894  81.969   5.476  1.00 37.47    -0.572 OA
ENDBRANCH  29  30
ENDBRANCH  24  29
BRANCH  25  34
HETATM   34  O3  UAP C   4      14.708  83.188   7.165  1.00 38.58    -0.393 OA
ATOM     35  H3  UAP C   4      15.287  82.886   6.476  1.00  0.00     0.210 HD
ENDBRANCH  25  34
BRANCH  27  36
HETATM   36  C6  UAP C   4      14.942  82.883  12.008  1.00 37.96     0.203 C 
HETATM   37  O6A UAP C   4      14.261  81.854  12.189  1.00 40.05    -0.646 OA
HETATM   38  O6B UAP C   4      15.180  83.720  12.905  1.00 36.71    -0.646 OA
ENDBRANCH  27  36
ENDBRANCH  22  23
ENDBRANCH  11  22
BRANCH  12  39
HETATM   39  C6  SGN C   3      20.287  85.536   9.755  1.00 42.65     0.227 C 
BRANCH  39  40
HETATM   40  O6  SGN C   3      20.591  85.616   8.345  1.00 51.09    -0.254 OA
BRANCH  40  41
HETATM   41  S2  SGN C   3      21.876  86.474   7.946  1.00 54.80     0.251 S 
HETATM   42  O4S SGN C   3      22.125  87.430   9.039  1.00 54.99    -0.572 OA
HETATM   43  O5S SGN C   3      21.544  87.168   6.666  1.00 53.99    -0.572 OA
HETATM   44  O6S SGN C   3      22.979  85.535   7.788  1.00 55.43    -0.572 OA
ENDBRANCH  40  41
ENDBRANCH  39  40
ENDBRANCH  12  39
ENDBRANCH   7   8
ENDBRANCH   4   7
BRANCH   3  45
HETATM   45  O3  IDS C   2      24.163  85.853  10.534  1.00 39.65    -0.390 OA
ATOM     46  H3  IDS C   2      23.749  86.523  11.064  1.00  0.00     0.210 HD
ENDBRANCH   3  45
BRANCH   5  47
HETATM   47  C6  IDS C   2      25.501  81.077  10.541  1.00 36.10     0.206 C 
HETATM   48  O6A IDS C   2      24.984  80.842   9.427  1.00 32.44    -0.646 OA
HETATM   49  O6B IDS C   2      25.920  80.188  11.322  1.00 33.44    -0.646 OA
ENDBRANCH   5  47
BRANCH   2  50
HETATM   50  O2  IDS C   2      25.840  86.226  12.732  1.00 43.59    -0.244 OA
BRANCH  50  51
HETATM   51  S   IDS C   2      26.799  87.436  12.328  1.00 44.11     0.252 S 
HETATM   52  O1S IDS C   2      26.798  88.395  13.486  1.00 44.48    -0.572 OA
HETATM   53  O2S IDS C   2      26.239  88.043  11.102  1.00 44.29    -0.572 OA
HETATM   54  O3S IDS C   2      28.116  86.871  12.096  1.00 44.74    -0.572 OA
ENDBRANCH  50  51
ENDBRANCH   2  50
BRANCH   1  55
HETATM   55  O4  SGN C   1      27.669  83.746  12.961  1.00 44.73    -0.348 OA
BRANCH  55  56
HETATM   56  C4  SGN C   1      28.245  83.119  14.128  1.00 48.25     0.186 C 
HETATM   57  C3  SGN C   1      29.111  81.927  13.702  1.00 48.43     0.178 C 
HETATM   58  C2  SGN C   1      29.847  81.355  14.913  1.00 48.58     0.181 C 
HETATM   59  C1  SGN C   1      30.626  82.436  15.659  1.00 50.40     0.283 C 
HETATM   60  O5  SGN C   1      29.752  83.511  16.024  1.00 50.82    -0.349 OA
HETATM   61  C5  SGN C   1      29.118  84.136  14.884  1.00 51.58     0.181 C 
BRANCH  57  62
HETATM   62  O3  SGN C   1      28.296  80.918  13.129  1.00 46.09    -0.391 OA
ATOM     63  H3  SGN C   1      27.729  80.554  13.799  1.00  0.00     0.210 HD
ENDBRANCH  57  62
BRANCH  58  64
HETATM   64  N2  SGN C   1      30.751  80.300  14.503  1.00 48.56    -0.289 N 
ATOM     65  H2  SGN C   1      31.521  80.456  13.852  1.00  0.00     0.175 HD
BRANCH  64  66
HETATM   66  S1  SGN C   1      30.433  78.822  15.174  1.00 47.67     0.205 S 
HETATM   67  O1S SGN C   1      29.316  78.235  14.400  1.00 47.59    -0.578 OA
HETATM   68  O2S SGN C   1      30.066  79.096  16.566  1.00 48.55    -0.578 OA
HETATM   69  O3S SGN C   1      31.676  78.028  15.060  1.00 47.08    -0.578 OA
ENDBRANCH  64  66
ENDBRANCH  58  64
BRANCH  59  70
HETATM   70  O1  SGN C   1      31.632  82.939  14.847  1.00 51.36    -0.369 OA
ATOM     71  H1  SGN C   1      31.473  82.691  13.945  1.00  0.00     0.212 HD
ENDBRANCH  59  70
BRANCH  61  72
HETATM   72  C6  SGN C   1      28.323  85.301  15.418  1.00 55.48     0.227 C 
BRANCH  72  73
HETATM   73  O6  SGN C   1      28.409  85.325  16.859  1.00 61.59    -0.254 OA
BRANCH  73  74
HETATM   74  S2  SGN C   1      27.821  86.635  17.550  1.00 65.98     0.251 S 
HETATM   75  O4S SGN C   1      28.587  86.837  18.860  1.00 65.09    -0.572 OA
HETATM   76  O5S SGN C   1      26.411  86.383  17.783  1.00 65.58    -0.572 OA
HETATM   77  O6S SGN C   1      28.044  87.819  16.557  1.00 65.84    -0.572 OA
ENDBRANCH  73  74
ENDBRANCH  72  73
ENDBRANCH  61  72
ENDBRANCH  55  56
ENDBRANCH   1  55
TORSDOF 27
ENDMDL
MODEL 87
REMARK VINA RESULT:      -4.9      6.595     12.866
REMARK  27 active torsions:
REMARK  status: ('A' for Active; 'I' for Inactive)
REMARK    1  A    between atoms: C1_1  and  O1_2 
REMARK    2  A    between atoms: S1_5  and  N2_7 
REMARK    3  A    between atoms: C2_6  and  N2_7 
REMARK    4  A    between atoms: S2_10  and  O6_22 
REMARK    5  A    between atoms: C3_11  and  O3_12 
REMARK    6  A    between atoms: C4_15  and  O4_16 
REMARK    7  A    between atoms: O4_16  and  C1_24 
REMARK    8  A    between atoms: C5_18  and  C6_21 
REMARK    9  A    between atoms: C6_21  and  O6_22 
REMARK   10  A    between atoms: C2_26  and  O2_27 
REMARK   11  A    between atoms: O2_27  and  S_40 
REMARK   12  A    between atoms: C3_29  and  O3_30 
REMARK   13  A    between atoms: C4_33  and  O4_34 
REMARK   14  A    between atoms: O4_34  and  C1_41 
REMARK   15  A    between atoms: C5_35  and  C6_37 
REMARK   16  A    between atoms: S1_43  and  N2_45 
REMARK   17  A    between atoms: C2_44  and  N2_45 
REMARK   18  A    between atoms: S2_48  and  O6_60 
REMARK   19  A    between atoms: C3_49  and  O3_50 
REMARK   20  A    between atoms: C4_53  and  O4_54 
REMARK   21  A    between atoms: O4_54  and  C1_62 
REMARK   22  A    between atoms: C5_56  and  C6_59 
REMARK   23  A    between atoms: C6_59  and  O6_60 
REMARK   24  A    between atoms: C2_64  and  O2_65 
REMARK   25  A    between atoms: O2_65  and  S_77 
REMARK   26  A    between atoms: C3_67  and  O3_68 
REMARK   27  A    between atoms: C5_72  and  C6_74 
ROOT
HETATM    1  C1  IDS C   2      24.824  82.887  12.710  1.00 40.81     0.294 C 
HETATM    2  C2  IDS C   2      24.411  81.479  13.147  1.00 40.20     0.231 C 
HETATM    3  C3  IDS C   2      23.025  81.124  12.615  1.00 39.01     0.185 C 
HETATM    4  C4  IDS C   2      21.962  82.112  13.137  1.00 37.65     0.195 C 
HETATM    5  C5  IDS C   2      22.637  83.416  13.581  1.00 35.99     0.257 C 
HETATM    6  O5  IDS C   2      23.681  83.769  12.643  1.00 39.00    -0.340 OA
ENDROOT
BRANCH   4   7
HETATM    7  O4  IDS C   2      20.992  82.385  12.096  1.00 35.98    -0.348 OA
BRANCH   7   8
HETATM    8  C1  SGN C   3      21.465  83.093  10.982  1.00 35.40     0.287 C 
HETATM    9  C2  SGN C   3      20.332  83.933  10.367  1.00 33.71     0.182 C 
HETATM   10  C3  SGN C   3      19.307  83.070   9.621  1.00 35.79     0.178 C 
HETATM   11  C4  SGN C   3      19.983  82.046   8.694  1.00 36.62     0.186 C 
HETATM   12  C5  SGN C   3      21.079  81.302   9.447  1.00 39.32     0.181 C 
HETATM   13  O5  SGN C   3      22.022  82.237  10.000  1.00 37.58    -0.349 OA
BRANCH   9  14
HETATM   14  N2  SGN C   3      19.651  84.665  11.412  1.00 29.28    -0.289 N 
ATOM     15  H2  SGN C   3      19.399  84.215  12.292  1.00  0.00     0.175 HD
BRANCH  14  16
HETATM   16  S1  SGN C   3      19.297  86.253  11.130  1.00 27.84     0.205 S 
HETATM   17  O1S SGN C   3      18.039  86.223  10.407  1.00 27.65    -0.578 OA
HETATM   18  O2S SGN C   3      20.427  86.765  10.299  1.00 27.72    -0.578 OA
HETATM   19  O3S SGN C   3      19.188  86.978  12.435  1.00 28.50    -0.578 OA
ENDBRANCH  14  16
ENDBRANCH   9  14
BRANCH  10  20
HETATM   20  O3  SGN C   3      18.436  83.911   8.868  1.00 34.89    -0.391 OA
ATOM     21  H3  SGN C   3      18.858  84.749   8.716  1.00  0.00     0.210 HD
ENDBRANCH  10  20
BRANCH  11  22
HETATM   22  O4  SGN C   3      19.003  81.091   8.250  1.00 37.13    -0.348 OA
BRANCH  22  23
HETATM   23  C1  UAP C   4      18.301  81.448   7.109  1.00 39.64     0.294 C 
HETATM   24  C2  UAP C   4      18.224  80.271   6.153  1.00 38.70     0.228 C 
HETATM   25  C3  UAP C   4      17.536  80.693   4.858  1.00 38.51     0.156 C 
HETATM   26  C4  UAP C   4      16.261  81.631   5.078  1.00 38.14     0.077 C 
HETATM   27  C5  UAP C   4      16.100  82.104   6.389  1.00 38.51     0.228 C 
HETATM   28  O5  UAP C   4      16.985  81.810   7.507  1.00 37.46    -0.343 OA
BRANCH  24  29
HETATM   29  O2  UAP C   4      19.572  79.819   5.803  1.00 40.54    -0.244 OA
BRANCH  29  30
HETATM   30  S   UAP C   4      19.991  78.281   5.950  1.00 40.49     0.252 S 
HETATM   31  O1S UAP C   4      19.663  77.878   7.325  1.00 40.89    -0.572 OA
HETATM   32  O2S UAP C   4      21.437  78.208   5.694  1.00 37.88    -0.572 OA
HETATM   33  O3S UAP C   4      19.215  77.525   4.955  1.00 37.47    -0.572 OA
ENDBRANCH  29  30
ENDBRANCH  24  29
BRANCH  25  34
HETATM   34  O3  UAP C   4      17.146  79.531   4.143  1.00 38.58    -0.393 OA
ATOM     35  H3  UAP C   4      16.900  78.855   4.764  1.00  0.00     0.210 HD
ENDBRANCH  25  34
BRANCH  27  36
HETATM   36  C6  UAP C   4      14.949  82.958   6.796  1.00 37.96     0.203 C 
HETATM   37  O6A UAP C   4      15.119  83.769   7.728  1.00 40.05    -0.646 OA
HETATM   38  O6B UAP C   4      13.867  82.821   6.187  1.00 36.71    -0.646 OA
ENDBRANCH  27  36
ENDBRANCH  22  23
ENDBRANCH  11  22
BRANCH  12  39
HETATM   39  C6  SGN C   3      21.859  80.333   8.603  1.00 42.65     0.227 C 
BRANCH  39  40
HETATM   40  O6  SGN C   3      22.972  79.910   9.422  1.00 51.09    -0.254 OA
BRANCH  40  41
HETATM   41  S2  SGN C   3      23.006  78.367   9.827  1.00 54.80     0.251 S 
HETATM   42  O4S SGN C   3      22.736  77.584   8.607  1.00 54.99    -0.572 OA
HETATM   43  O5S SGN C   3      21.943  78.173  10.857  1.00 53.99    -0.572 OA
HETATM   44  O6S SGN C   3      24.336  78.099  10.357  1.00 55.43    -0.572 OA
ENDBRANCH  40  41
ENDBRANCH  39  40
ENDBRANCH  12  39
ENDBRANCH   7   8
ENDBRANCH   4   7
BRANCH   3  45
HETATM   45  O3  IDS C   2      22.690  79.801  13.011  1.00 39.65    -0.390 OA
ATOM     46  H3  IDS C   2      21.746  79.696  12.997  1.00  0.00     0.210 HD
ENDBRANCH   3  45
BRANCH   5  47
HETATM   47  C6  IDS C   2      21.703  84.612  13.711  1.00 36.10     0.206 C 
HETATM   48  O6A IDS C   2      20.674  84.471  14.409  1.00 32.44    -0.646 OA
HETATM   49  O6B IDS C   2      22.015  85.678  13.128  1.00 33.44    -0.646 OA
ENDBRANCH   5  47
BRANCH   2  50
HETATM   50  O2  IDS C   2      25.362  80.505  12.628  1.00 43.59    -0.244 OA
BRANCH  50  51
HETATM   51  S   IDS C   2      26.160  79.565  13.642  1.00 44.11     0.252 S 
HETATM   52  O1S IDS C   2      25.508  78.213  13.584  1.00 44.48    -0.572 OA
HETATM   53  O2S IDS C   2      26.050  80.180  14.982  1.00 44.29    -0.572 OA
HETATM   54  O3S IDS C   2      27.536  79.521  13.181  1.00 44.74    -0.572 OA
ENDBRANCH  50  51
ENDBRANCH   2  50
BRANCH   1  55
HETATM   55  O4  SGN C   1      25.731  83.408  13.622  1.00 44.73    -0.348 OA
BRANCH  55  56
HETATM   56  C4  SGN C   1      26.766  84.279  13.115  1.00 48.25     0.186 C 
HETATM   57  C3  SGN C   1      26.369  85.742  13.342  1.00 48.43     0.178 C 
HETATM   58  C2  SGN C   1      27.523  86.665  12.952  1.00 48.58     0.181 C 
HETATM   59  C1  SGN C   1      28.820  86.271  13.655  1.00 50.40     0.283 C 
HETATM   60  O5  SGN C   1      29.124  84.895  13.395  1.00 50.82    -0.349 OA
HETATM   61  C5  SGN C   1      28.088  83.992  13.847  1.00 51.58     0.181 C 
BRANCH  57  62
HETATM   62  O3  SGN C   1      25.229  86.061  12.560  1.00 46.09    -0.391 OA
ATOM     63  H3  SGN C   1      24.756  85.263  12.355  1.00  0.00     0.210 HD
ENDBRANCH  57  62
BRANCH  58  64
HETATM   64  N2  SGN C   1      27.198  88.041  13.266  1.00 48.56    -0.289 N 
ATOM     65  H2  SGN C   1      27.128  88.386  14.223  1.00  0.00     0.175 HD
BRANCH  64  66
HETATM   66  S1  SGN C   1      26.951  89.008  11.946  1.00 47.67     0.205 S 
HETATM   67  O1S SGN C   1      25.500  88.971  11.658  1.00 47.59    -0.578 OA
HETATM   68  O2S SGN C   1      27.751  88.413  10.871  1.00 48.55    -0.578 OA
HETATM   69  O3S SGN C   1      27.417  90.361  12.319  1.00 47.08    -0.578 OA
ENDBRANCH  64  66
ENDBRANCH  58  64
BRANCH  59  70
HETATM   70  O1  SGN C   1      28.685  86.443  15.025  1.00 51.36    -0.369 OA
ATOM     71  H1  SGN C   1      27.967  87.038  15.207  1.00  0.00     0.212 HD
ENDBRANCH  59  70
BRANCH  61  72
HETATM   72  C6  SGN C   1      28.597  82.594  13.601  1.00 55.48     0.227 C 
BRANCH  72  73
HETATM   73  O6  SGN C   1      30.040  82.587  13.664  1.00 61.59    -0.254 OA
BRANCH  73  74
HETATM   74  S2  SGN C   1      30.666  81.576  14.724  1.00 65.98     0.251 S 
HETATM   75  O4S SGN C   1      31.533  82.401  15.678  1.00 65.09    -0.572 OA
HETATM   76  O5S SGN C   1      31.456  80.621  13.967  1.00 65.58    -0.572 OA
HETATM   77  O6S SGN C   1      29.476  80.889  15.464  1.00 65.84    -0.572 OA
ENDBRANCH  73  74
ENDBRANCH  72  73
ENDBRANCH  61  72
ENDBRANCH  55  56
ENDBRANCH   1  55
TORSDOF 27
ENDMDL
MODEL 88
REMARK VINA RESULT:      -4.9      5.303     12.364
REMARK  27 active torsions:
REMARK  status: ('A' for Active; 'I' for Inactive)
REMARK    1  A    between atoms: C1_1  and  O1_2 
REMARK    2  A    between atoms: S1_5  and  N2_7 
REMARK    3  A    between atoms: C2_6  and  N2_7 
REMARK    4  A    between atoms: S2_10  and  O6_22 
REMARK    5  A    between atoms: C3_11  and  O3_12 
REMARK    6  A    between atoms: C4_15  and  O4_16 
REMARK    7  A    between atoms: O4_16  and  C1_24 
REMARK    8  A    between atoms: C5_18  and  C6_21 
REMARK    9  A    between atoms: C6_21  and  O6_22 
REMARK   10  A    between atoms: C2_26  and  O2_27 
REMARK   11  A    between atoms: O2_27  and  S_40 
REMARK   12  A    between atoms: C3_29  and  O3_30 
REMARK   13  A    between atoms: C4_33  and  O4_34 
REMARK   14  A    between atoms: O4_34  and  C1_41 
REMARK   15  A    between atoms: C5_35  and  C6_37 
REMARK   16  A    between atoms: S1_43  and  N2_45 
REMARK   17  A    between atoms: C2_44  and  N2_45 
REMARK   18  A    between atoms: S2_48  and  O6_60 
REMARK   19  A    between atoms: C3_49  and  O3_50 
REMARK   20  A    between atoms: C4_53  and  O4_54 
REMARK   21  A    between atoms: O4_54  and  C1_62 
REMARK   22  A    between atoms: C5_56  and  C6_59 
REMARK   23  A    between atoms: C6_59  and  O6_60 
REMARK   24  A    between atoms: C2_64  and  O2_65 
REMARK   25  A    between atoms: O2_65  and  S_77 
REMARK   26  A    between atoms: C3_67  and  O3_68 
REMARK   27  A    between atoms: C5_72  and  C6_74 
ROOT
HETATM    1  C1  IDS C   2      27.725  84.956  12.266  1.00 40.81     0.294 C 
HETATM    2  C2  IDS C   2      27.821  85.412  10.808  1.00 40.20     0.231 C 
HETATM    3  C3  IDS C   2      26.475  85.275  10.101  1.00 39.01     0.185 C 
HETATM    4  C4  IDS C   2      25.995  83.810  10.107  1.00 37.65     0.195 C 
HETATM    5  C5  IDS C   2      26.700  83.035  11.228  1.00 35.99     0.257 C 
HETATM    6  O5  IDS C   2      26.791  83.864  12.411  1.00 39.00    -0.340 OA
ENDROOT
BRANCH   4   7
HETATM    7  O4  IDS C   2      24.559  83.764  10.300  1.00 35.98    -0.348 OA
BRANCH   7   8
HETATM    8  C1  SGN C   3      23.815  83.189   9.259  1.00 35.40     0.287 C 
HETATM    9  C2  SGN C   3      22.713  84.159   8.798  1.00 33.71     0.182 C 
HETATM   10  C3  SGN C   3      21.568  84.265   9.812  1.00 35.79     0.178 C 
HETATM   11  C4  SGN C   3      21.105  82.883  10.303  1.00 36.62     0.186 C 
HETATM   12  C5  SGN C   3      22.308  82.046  10.720  1.00 39.32     0.181 C 
HETATM   13  O5  SGN C   3      23.243  81.948   9.632  1.00 37.58    -0.349 OA
BRANCH   9  14
HETATM   14  N2  SGN C   3      23.280  85.474   8.597  1.00 29.28    -0.289 N 
ATOM     15  H2  SGN C   3      23.700  85.991   9.369  1.00  0.00     0.175 HD
BRANCH  14  16
HETATM   16  S1  SGN C   3      23.222  86.109   7.073  1.00 27.84     0.205 S 
HETATM   17  O1S SGN C   3      22.075  85.469   6.455  1.00 27.65    -0.578 OA
HETATM   18  O2S SGN C   3      24.513  85.717   6.436  1.00 27.72    -0.578 OA
HETATM   19  O3S SGN C   3      23.067  87.595   7.159  1.00 28.50    -0.578 OA
ENDBRANCH  14  16
ENDBRANCH   9  14
BRANCH  10  20
HETATM   20  O3  SGN C   3      20.475  84.967   9.224  1.00 34.89    -0.391 OA
ATOM     21  H3  SGN C   3      20.645  85.901   9.254  1.00  0.00     0.210 HD
ENDBRANCH  10  20
BRANCH  11  22
HETATM   22  O4  SGN C   3      20.246  83.050  11.445  1.00 37.13    -0.348 OA
BRANCH  22  23
HETATM   23  C1  UAP C   4      18.903  82.792  11.221  1.00 39.64     0.294 C 
HETATM   24  C2  UAP C   4      18.109  84.085  11.253  1.00 38.70     0.228 C 
HETATM   25  C3  UAP C   4      16.620  83.790  11.103  1.00 38.51     0.156 C 
HETATM   26  C4  UAP C   4      16.289  82.673  10.008  1.00 38.14     0.077 C 
HETATM   27  C5  UAP C   4      17.406  81.981   9.519  1.00 38.51     0.228 C 
HETATM   28  O5  UAP C   4      18.785  82.205   9.931  1.00 37.46    -0.343 OA
BRANCH  24  29
HETATM   29  O2  UAP C   4      18.292  84.756  12.541  1.00 40.54    -0.244 OA
BRANCH  29  30
HETATM   30  S   UAP C   4      18.699  86.303  12.616  1.00 40.49     0.252 S 
HETATM   31  O1S UAP C   4      17.455  87.064  12.801  1.00 40.89    -0.572 OA
HETATM   32  O2S UAP C   4      19.352  86.632  11.340  1.00 37.88    -0.572 OA
HETATM   33  O3S UAP C   4      19.613  86.455  13.759  1.00 37.47    -0.572 OA
ENDBRANCH  29  30
ENDBRANCH  24  29
BRANCH  25  34
HETATM   34  O3  UAP C   4      15.942  84.990  10.767  1.00 38.58    -0.393 OA
ATOM     35  H3  UAP C   4      16.025  85.141   9.833  1.00  0.00     0.210 HD
ENDBRANCH  25  34
BRANCH  27  36
HETATM   36  C6  UAP C   4      17.301  80.933   8.466  1.00 37.96     0.203 C 
HETATM   37  O6A UAP C   4      17.170  81.300   7.281  1.00 40.05    -0.646 OA
HETATM   38  O6B UAP C   4      17.347  79.735   8.817  1.00 36.71    -0.646 OA
ENDBRANCH  27  36
ENDBRANCH  22  23
ENDBRANCH  11  22
BRANCH  12  39
HETATM   39  C6  SGN C   3      21.968  80.643  11.139  1.00 42.65     0.227 C 
BRANCH  39  40
HETATM   40  O6  SGN C   3      22.299  79.807  10.008  1.00 51.09    -0.254 OA
BRANCH  40  41
HETATM   41  S2  SGN C   3      21.074  79.103   9.266  1.00 54.80     0.251 S 
HETATM   42  O4S SGN C   3      20.012  78.894  10.267  1.00 54.99    -0.572 OA
HETATM   43  O5S SGN C   3      21.589  77.810   8.725  1.00 53.99    -0.572 OA
HETATM   44  O6S SGN C   3      20.646  80.007   8.206  1.00 55.43    -0.572 OA
ENDBRANCH  40  41
ENDBRANCH  39  40
ENDBRANCH  12  39
ENDBRANCH   7   8
ENDBRANCH   4   7
BRANCH   3  45
HETATM   45  O3  IDS C   2      26.593  85.738   8.763  1.00 39.65    -0.390 OA
ATOM     46  H3  IDS C   2      25.930  85.323   8.225  1.00  0.00     0.210 HD
ENDBRANCH   3  45
BRANCH   5  47
HETATM   47  C6  IDS C   2      26.030  81.726  11.625  1.00 36.10     0.206 C 
HETATM   48  O6A IDS C   2      25.424  81.694  12.719  1.00 32.44    -0.646 OA
HETATM   49  O6B IDS C   2      26.104  80.755  10.834  1.00 33.44    -0.646 OA
ENDBRANCH   5  47
BRANCH   2  50
HETATM   50  O2  IDS C   2      28.222  86.812  10.757  1.00 43.59    -0.244 OA
BRANCH  50  51
HETATM   51  S   IDS C   2      29.757  87.185  10.529  1.00 44.11     0.252 S 
HETATM   52  O1S IDS C   2      30.322  87.541  11.875  1.00 44.48    -0.572 OA
HETATM   53  O2S IDS C   2      29.791  88.327   9.591  1.00 44.29    -0.572 OA
HETATM   54  O3S IDS C   2      30.397  86.009   9.968  1.00 44.74    -0.572 OA
ENDBRANCH  50  51
ENDBRANCH   2  50
BRANCH   1  55
HETATM   55  O4  SGN C   1      28.973  84.530  12.700  1.00 44.73    -0.348 OA
BRANCH  55  56
HETATM   56  C4  SGN C   1      29.016  83.594  13.799  1.00 48.25     0.186 C 
HETATM   57  C3  SGN C   1      29.968  82.441  13.460  1.00 48.43     0.178 C 
HETATM   58  C2  SGN C   1      30.140  81.528  14.674  1.00 48.58     0.181 C 
HETATM   59  C1  SGN C   1      30.557  82.317  15.915  1.00 50.40     0.283 C 
HETATM   60  O5  SGN C   1      29.621  83.371  16.166  1.00 50.82    -0.349 OA
HETATM   61  C5  SGN C   1      29.514  84.306  15.068  1.00 51.58     0.181 C 
BRANCH  57  62
HETATM   62  O3  SGN C   1      29.448  81.686  12.377  1.00 46.09    -0.391 OA
ATOM     63  H3  SGN C   1      29.877  80.838  12.351  1.00  0.00     0.210 HD
ENDBRANCH  57  62
BRANCH  58  64
HETATM   64  N2  SGN C   1      31.122  80.500  14.399  1.00 48.56    -0.289 N 
ATOM     65  H2  SGN C   1      32.095  80.712  14.178  1.00  0.00     0.175 HD
BRANCH  64  66
HETATM   66  S1  SGN C   1      30.538  78.954  14.472  1.00 47.67     0.205 S 
HETATM   67  O1S SGN C   1      29.592  78.803  13.345  1.00 47.59    -0.578 OA
HETATM   68  O2S SGN C   1      29.876  78.848  15.776  1.00 48.55    -0.578 OA
HETATM   69  O3S SGN C   1      31.706  78.054  14.353  1.00 47.08    -0.578 OA
ENDBRANCH  64  66
ENDBRANCH  58  64
BRANCH  59  70
HETATM   70  O1  SGN C   1      31.812  82.875  15.719  1.00 51.36    -0.369 OA
ATOM     71  H1  SGN C   1      32.479  82.304  16.080  1.00  0.00     0.212 HD
ENDBRANCH  59  70
BRANCH  61  72
HETATM   72  C6  SGN C   1      28.582  85.402  15.523  1.00 55.48     0.227 C 
BRANCH  72  73
HETATM   73  O6  SGN C   1      29.305  86.649  15.601  1.00 61.59    -0.254 OA
BRANCH  73  74
HETATM   74  S2  SGN C   1      28.411  87.960  15.448  1.00 65.98     0.251 S 
HETATM   75  O4S SGN C   1      27.564  87.783  14.185  1.00 65.09    -0.572 OA
HETATM   76  O5S SGN C   1      29.331  89.076  15.330  1.00 65.58    -0.572 OA
HETATM   77  O6S SGN C   1      27.528  88.068  16.731  1.00 65.84    -0.572 OA
ENDBRANCH  73  74
ENDBRANCH  72  73
ENDBRANCH  61  72
ENDBRANCH  55  56
ENDBRANCH   1  55
TORSDOF 27
ENDMDL
MODEL 89
REMARK VINA RESULT:      -4.9      6.898     13.812
REMARK  27 active torsions:
REMARK  status: ('A' for Active; 'I' for Inactive)
REMARK    1  A    between atoms: C1_1  and  O1_2 
REMARK    2  A    between atoms: S1_5  and  N2_7 
REMARK    3  A    between atoms: C2_6  and  N2_7 
REMARK    4  A    between atoms: S2_10  and  O6_22 
REMARK    5  A    between atoms: C3_11  and  O3_12 
REMARK    6  A    between atoms: C4_15  and  O4_16 
REMARK    7  A    between atoms: O4_16  and  C1_24 
REMARK    8  A    between atoms: C5_18  and  C6_21 
REMARK    9  A    between atoms: C6_21  and  O6_22 
REMARK   10  A    between atoms: C2_26  and  O2_27 
REMARK   11  A    between atoms: O2_27  and  S_40 
REMARK   12  A    between atoms: C3_29  and  O3_30 
REMARK   13  A    between atoms: C4_33  and  O4_34 
REMARK   14  A    between atoms: O4_34  and  C1_41 
REMARK   15  A    between atoms: C5_35  and  C6_37 
REMARK   16  A    between atoms: S1_43  and  N2_45 
REMARK   17  A    between atoms: C2_44  and  N2_45 
REMARK   18  A    between atoms: S2_48  and  O6_60 
REMARK   19  A    between atoms: C3_49  and  O3_50 
REMARK   20  A    between atoms: C4_53  and  O4_54 
REMARK   21  A    between atoms: O4_54  and  C1_62 
REMARK   22  A    between atoms: C5_56  and  C6_59 
REMARK   23  A    between atoms: C6_59  and  O6_60 
REMARK   24  A    between atoms: C2_64  and  O2_65 
REMARK   25  A    between atoms: O2_65  and  S_77 
REMARK   26  A    between atoms: C3_67  and  O3_68 
REMARK   27  A    between atoms: C5_72  and  C6_74 
ROOT
HETATM    1  C1  IDS C   2      25.492  81.337  11.253  1.00 40.81     0.294 C 
HETATM    2  C2  IDS C   2      24.860  80.806   9.964  1.00 40.20     0.231 C 
HETATM    3  C3  IDS C   2      23.445  81.349   9.784  1.00 39.01     0.185 C 
HETATM    4  C4  IDS C   2      22.539  80.932  10.960  1.00 37.65     0.195 C 
HETATM    5  C5  IDS C   2      23.400  80.568  12.177  1.00 35.99     0.257 C 
HETATM    6  O5  IDS C   2      24.501  81.501  12.291  1.00 39.00    -0.340 OA
ENDROOT
BRANCH   4   7
HETATM    7  O4  IDS C   2      21.639  82.017  11.296  1.00 35.98    -0.348 OA
BRANCH   7   8
HETATM    8  C1  SGN C   3      21.253  82.848  10.234  1.00 35.40     0.287 C 
HETATM    9  C2  SGN C   3      20.571  84.117  10.776  1.00 33.71     0.182 C 
HETATM   10  C3  SGN C   3      19.165  83.836  11.318  1.00 35.79     0.178 C 
HETATM   11  C4  SGN C   3      18.338  82.972  10.351  1.00 36.62     0.186 C 
HETATM   12  C5  SGN C   3      19.149  81.762   9.906  1.00 39.32     0.181 C 
HETATM   13  O5  SGN C   3      20.393  82.188   9.322  1.00 37.58    -0.349 OA
BRANCH   9  14
HETATM   14  N2  SGN C   3      21.375  84.681  11.838  1.00 29.28    -0.289 N 
ATOM     15  H2  SGN C   3      21.873  84.083  12.497  1.00  0.00     0.175 HD
BRANCH  14  16
HETATM   16  S1  SGN C   3      21.457  86.327  11.946  1.00 27.84     0.205 S 
HETATM   17  O1S SGN C   3      22.875  86.616  12.044  1.00 27.65    -0.578 OA
HETATM   18  O2S SGN C   3      20.709  86.676  13.190  1.00 27.72    -0.578 OA
HETATM   19  O3S SGN C   3      20.834  86.937  10.729  1.00 28.50    -0.578 OA
ENDBRANCH  14  16
ENDBRANCH   9  14
BRANCH  10  20
HETATM   20  O3  SGN C   3      18.495  85.071  11.565  1.00 34.89    -0.391 OA
ATOM     21  H3  SGN C   3      18.398  85.547  10.749  1.00  0.00     0.210 HD
ENDBRANCH  10  20
BRANCH  11  22
HETATM   22  O4  SGN C   3      17.155  82.507  11.025  1.00 37.13    -0.348 OA
BRANCH  22  23
HETATM   23  C1  UAP C   4      15.958  83.004  10.534  1.00 39.64     0.294 C 
HETATM   24  C2  UAP C   4      15.431  84.096  11.448  1.00 38.70     0.228 C 
HETATM   25  C3  UAP C   4      14.066  84.574  10.960  1.00 38.51     0.156 C 
HETATM   26  C4  UAP C   4      13.968  84.740   9.373  1.00 38.14     0.077 C 
HETATM   27  C5  UAP C   4      15.056  84.215   8.660  1.00 38.51     0.228 C 
HETATM   28  O5  UAP C   4      16.213  83.556   9.249  1.00 37.46    -0.343 OA
BRANCH  24  29
HETATM   29  O2  UAP C   4      15.250  83.573  12.803  1.00 40.54    -0.244 OA
BRANCH  29  30
HETATM   30  S   UAP C   4      13.895  82.836  13.229  1.00 40.49     0.252 S 
HETATM   31  O1S UAP C   4      14.250  81.847  14.257  1.00 40.89    -0.572 OA
HETATM   32  O2S UAP C   4      13.363  82.192  12.019  1.00 37.88    -0.572 OA
HETATM   33  O3S UAP C   4      12.985  83.869  13.750  1.00 37.47    -0.572 OA
ENDBRANCH  29  30
ENDBRANCH  24  29
BRANCH  25  34
HETATM   34  O3  UAP C   4      13.762  85.813  11.580  1.00 38.58    -0.393 OA
ATOM     35  H3  UAP C   4      13.034  85.689  12.177  1.00  0.00     0.210 HD
ENDBRANCH  25  34
BRANCH  27  36
HETATM   36  C6  UAP C   4      15.162  84.311   7.177  1.00 37.96     0.203 C 
HETATM   37  O6A UAP C   4      14.453  83.554   6.486  1.00 40.05    -0.646 OA
HETATM   38  O6B UAP C   4      15.958  85.144   6.694  1.00 36.71    -0.646 OA
ENDBRANCH  27  36
ENDBRANCH  22  23
ENDBRANCH  11  22
BRANCH  12  39
HETATM   39  C6  SGN C   3      18.458  80.895   8.890  1.00 42.65     0.227 C 
BRANCH  39  40
HETATM   40  O6  SGN C   3      18.864  79.542   9.191  1.00 51.09    -0.254 OA
BRANCH  40  41
HETATM   41  S2  SGN C   3      19.812  78.833   8.121  1.00 54.80     0.251 S 
HETATM   42  O4S SGN C   3      20.206  79.854   7.134  1.00 54.99    -0.572 OA
HETATM   43  O5S SGN C   3      19.009  77.739   7.497  1.00 53.99    -0.572 OA
HETATM   44  O6S SGN C   3      20.962  78.317   8.852  1.00 55.43    -0.572 OA
ENDBRANCH  40  41
ENDBRANCH  39  40
ENDBRANCH  12  39
ENDBRANCH   7   8
ENDBRANCH   4   7
BRANCH   3  45
HETATM   45  O3  IDS C   2      22.903  80.864   8.563  1.00 39.65    -0.390 OA
ATOM     46  H3  IDS C   2      22.605  81.595   8.036  1.00  0.00     0.210 HD
ENDBRANCH   3  45
BRANCH   5  47
HETATM   47  C6  IDS C   2      22.660  80.555  13.507  1.00 36.10     0.206 C 
HETATM   48  O6A IDS C   2      21.632  79.846  13.592  1.00 32.44    -0.646 OA
HETATM   49  O6B IDS C   2      23.121  81.237  14.453  1.00 33.44    -0.646 OA
ENDBRANCH   5  47
BRANCH   2  50
HETATM   50  O2  IDS C   2      25.658  81.224   8.818  1.00 43.59    -0.244 OA
BRANCH  50  51
HETATM   51  S   IDS C   2      26.220  80.126   7.806  1.00 44.11     0.252 S 
HETATM   52  O1S IDS C   2      25.105  79.805   6.851  1.00 44.48    -0.572 OA
HETATM   53  O2S IDS C   2      26.615  78.953   8.614  1.00 44.29    -0.572 OA
HETATM   54  O3S IDS C   2      27.357  80.720   7.128  1.00 44.74    -0.572 OA
ENDBRANCH  50  51
ENDBRANCH   2  50
BRANCH   1  55
HETATM   55  O4  SGN C   1      26.454  80.441  11.699  1.00 44.73    -0.348 OA
BRANCH  55  56
HETATM   56  C4  SGN C   1      26.674  80.349  13.124  1.00 48.25     0.186 C 
HETATM   57  C3  SGN C   1      26.687  78.877  13.552  1.00 48.43     0.178 C 
HETATM   58  C2  SGN C   1      27.073  78.762  15.026  1.00 48.58     0.181 C 
HETATM   59  C1  SGN C   1      28.381  79.493  15.323  1.00 50.40     0.283 C 
HETATM   60  O5  SGN C   1      28.291  80.859  14.898  1.00 50.82    -0.349 OA
HETATM   61  C5  SGN C   1      28.024  80.993  13.482  1.00 51.58     0.181 C 
BRANCH  57  62
HETATM   62  O3  SGN C   1      25.403  78.305  13.359  1.00 46.09    -0.391 OA
ATOM     63  H3  SGN C   1      25.026  78.646  12.555  1.00  0.00     0.210 HD
ENDBRANCH  57  62
BRANCH  58  64
HETATM   64  N2  SGN C   1      27.195  77.371  15.411  1.00 48.56    -0.289 N 
ATOM     65  H2  SGN C   1      27.882  76.743  14.995  1.00  0.00     0.175 HD
BRANCH  64  66
HETATM   66  S1  SGN C   1      26.130  76.885  16.580  1.00 47.67     0.205 S 
HETATM   67  O1S SGN C   1      26.898  76.787  17.841  1.00 47.59    -0.578 OA
HETATM   68  O2S SGN C   1      25.623  75.585  16.129  1.00 48.55    -0.578 OA
HETATM   69  O3S SGN C   1      25.071  77.916  16.643  1.00 47.08    -0.578 OA
ENDBRANCH  64  66
ENDBRANCH  58  64
BRANCH  59  70
HETATM   70  O1  SGN C   1      29.426  78.885  14.642  1.00 51.36    -0.369 OA
ATOM     71  H1  SGN C   1      29.750  79.465  13.963  1.00  0.00     0.212 HD
ENDBRANCH  59  70
BRANCH  61  72
HETATM   72  C6  SGN C   1      28.064  82.469  13.174  1.00 55.48     0.227 C 
BRANCH  72  73
HETATM   73  O6  SGN C   1      27.324  83.193  14.182  1.00 61.59    -0.254 OA
BRANCH  73  74
HETATM   74  S2  SGN C   1      27.335  84.778  14.020  1.00 65.98     0.251 S 
HETATM   75  O4S SGN C   1      27.454  85.374  15.425  1.00 65.09    -0.572 OA
HETATM   76  O5S SGN C   1      26.080  85.138  13.386  1.00 65.58    -0.572 OA
HETATM   77  O6S SGN C   1      28.563  85.142  13.128  1.00 65.84    -0.572 OA
ENDBRANCH  73  74
ENDBRANCH  72  73
ENDBRANCH  61  72
ENDBRANCH  55  56
ENDBRANCH   1  55
TORSDOF 27
ENDMDL
MODEL 90
REMARK VINA RESULT:      -4.9      5.178     10.692
REMARK  27 active torsions:
REMARK  status: ('A' for Active; 'I' for Inactive)
REMARK    1  A    between atoms: C1_1  and  O1_2 
REMARK    2  A    between atoms: S1_5  and  N2_7 
REMARK    3  A    between atoms: C2_6  and  N2_7 
REMARK    4  A    between atoms: S2_10  and  O6_22 
REMARK    5  A    between atoms: C3_11  and  O3_12 
REMARK    6  A    between atoms: C4_15  and  O4_16 
REMARK    7  A    between atoms: O4_16  and  C1_24 
REMARK    8  A    between atoms: C5_18  and  C6_21 
REMARK    9  A    between atoms: C6_21  and  O6_22 
REMARK   10  A    between atoms: C2_26  and  O2_27 
REMARK   11  A    between atoms: O2_27  and  S_40 
REMARK   12  A    between atoms: C3_29  and  O3_30 
REMARK   13  A    between atoms: C4_33  and  O4_34 
REMARK   14  A    between atoms: O4_34  and  C1_41 
REMARK   15  A    between atoms: C5_35  and  C6_37 
REMARK   16  A    between atoms: S1_43  and  N2_45 
REMARK   17  A    between atoms: C2_44  and  N2_45 
REMARK   18  A    between atoms: S2_48  and  O6_60 
REMARK   19  A    between atoms: C3_49  and  O3_50 
REMARK   20  A    between atoms: C4_53  and  O4_54 
REMARK   21  A    between atoms: O4_54  and  C1_62 
REMARK   22  A    between atoms: C5_56  and  C6_59 
REMARK   23  A    between atoms: C6_59  and  O6_60 
REMARK   24  A    between atoms: C2_64  and  O2_65 
REMARK   25  A    between atoms: O2_65  and  S_77 
REMARK   26  A    between atoms: C3_67  and  O3_68 
REMARK   27  A    between atoms: C5_72  and  C6_74 
ROOT
HETATM    1  C1  IDS C   2      32.067  75.071  18.798  1.00 40.81     0.294 C 
HETATM    2  C2  IDS C   2      32.650  73.683  19.077  1.00 40.20     0.231 C 
HETATM    3  C3  IDS C   2      34.175  73.705  19.003  1.00 39.01     0.185 C 
HETATM    4  C4  IDS C   2      34.655  74.147  17.606  1.00 37.65     0.195 C 
HETATM    5  C5  IDS C   2      33.537  74.917  16.891  1.00 35.99     0.257 C 
HETATM    6  O5  IDS C   2      32.867  75.789  17.833  1.00 39.00    -0.340 OA
ENDROOT
BRANCH   4   7
HETATM    7  O4  IDS C   2      35.832  74.984  17.733  1.00 35.98    -0.348 OA
BRANCH   7   8
HETATM    8  C1  SGN C   3      37.033  74.318  18.014  1.00 35.40     0.287 C 
HETATM    9  C2  SGN C   3      38.162  75.339  18.245  1.00 33.71     0.182 C 
HETATM   10  C3  SGN C   3      38.617  76.008  16.942  1.00 35.79     0.178 C 
HETATM   11  C4  SGN C   3      38.836  74.984  15.816  1.00 36.62     0.186 C 
HETATM   12  C5  SGN C   3      37.637  74.049  15.718  1.00 39.32     0.181 C 
HETATM   13  O5  SGN C   3      37.399  73.415  16.987  1.00 37.58    -0.349 OA
BRANCH   9  14
HETATM   14  N2  SGN C   3      37.709  76.362  19.160  1.00 29.28    -0.289 N 
ATOM     15  H2  SGN C   3      37.754  76.225  20.170  1.00  0.00     0.175 HD
BRANCH  14  16
HETATM   16  S1  SGN C   3      37.114  77.760  18.513  1.00 27.84     0.205 S 
HETATM   17  O1S SGN C   3      38.137  78.753  18.786  1.00 27.65    -0.578 OA
HETATM   18  O2S SGN C   3      35.843  78.024  19.250  1.00 27.72    -0.578 OA
HETATM   19  O3S SGN C   3      36.882  77.570  17.046  1.00 28.50    -0.578 OA
ENDBRANCH  14  16
ENDBRANCH   9  14
BRANCH  10  20
HETATM   20  O3  SGN C   3      39.817  76.740  17.178  1.00 34.89    -0.391 OA
ATOM     21  H3  SGN C   3      40.427  76.586  16.466  1.00  0.00     0.210 HD
ENDBRANCH  10  20
BRANCH  11  22
HETATM   22  O4  SGN C   3      38.977  75.680  14.565  1.00 37.13    -0.348 OA
BRANCH  22  23
HETATM   23  C1  UAP C   4      40.195  75.511  13.925  1.00 39.64     0.294 C 
HETATM   24  C2  UAP C   4      40.980  76.810  13.944  1.00 38.70     0.228 C 
HETATM   25  C3  UAP C   4      42.277  76.650  13.156  1.00 38.51     0.156 C 
HETATM   26  C4  UAP C   4      43.023  75.259  13.413  1.00 38.14     0.077 C 
HETATM   27  C5  UAP C   4      42.275  74.317  14.134  1.00 38.51     0.228 C 
HETATM   28  O5  UAP C   4      40.923  74.518  14.636  1.00 37.46    -0.343 OA
BRANCH  24  29
HETATM   29  O2  UAP C   4      40.208  77.874  13.299  1.00 40.54    -0.244 OA
BRANCH  29  30
HETATM   30  S   UAP C   4      39.976  79.281  14.026  1.00 40.49     0.252 S 
HETATM   31  O1S UAP C   4      39.153  80.099  13.122  1.00 40.89    -0.572 OA
HETATM   32  O2S UAP C   4      41.304  79.874  14.236  1.00 37.88    -0.572 OA
HETATM   33  O3S UAP C   4      39.287  79.004  15.296  1.00 37.47    -0.572 OA
ENDBRANCH  29  30
ENDBRANCH  24  29
BRANCH  25  34
HETATM   34  O3  UAP C   4      43.152  77.717  13.484  1.00 38.58    -0.393 OA
ATOM     35  H3  UAP C   4      44.003  77.361  13.711  1.00  0.00     0.210 HD
ENDBRANCH  25  34
BRANCH  27  36
HETATM   36  C6  UAP C   4      42.816  72.980  14.505  1.00 37.96     0.203 C 
HETATM   37  O6A UAP C   4      42.014  72.105  14.888  1.00 40.05    -0.646 OA
HETATM   38  O6B UAP C   4      44.049  72.795  14.417  1.00 36.71    -0.646 OA
ENDBRANCH  27  36
ENDBRANCH  22  23
ENDBRANCH  11  22
BRANCH  12  39
HETATM   39  C6  SGN C   3      37.789  72.955  14.698  1.00 42.65     0.227 C 
BRANCH  39  40
HETATM   40  O6  SGN C   3      38.679  71.987  15.294  1.00 51.09    -0.254 OA
BRANCH  40  41
HETATM   41  S2  SGN C   3      38.381  70.454  14.966  1.00 54.80     0.251 S 
HETATM   42  O4S SGN C   3      38.361  69.723  16.246  1.00 54.99    -0.572 OA
HETATM   43  O5S SGN C   3      39.485  69.984  14.077  1.00 53.99    -0.572 OA
HETATM   44  O6S SGN C   3      37.086  70.409  14.299  1.00 55.43    -0.572 OA
ENDBRANCH  40  41
ENDBRANCH  39  40
ENDBRANCH  12  39
ENDBRANCH   7   8
ENDBRANCH   4   7
BRANCH   3  45
HETATM   45  O3  IDS C   2      34.681  72.411  19.300  1.00 39.65    -0.390 OA
ATOM     46  H3  IDS C   2      34.149  72.009  19.976  1.00  0.00     0.210 HD
ENDBRANCH   3  45
BRANCH   5  47
HETATM   47  C6  IDS C   2      33.994  75.767  15.713  1.00 36.10     0.206 C 
HETATM   48  O6A IDS C   2      33.839  77.005  15.796  1.00 32.44    -0.646 OA
HETATM   49  O6B IDS C   2      34.514  75.189  14.728  1.00 33.44    -0.646 OA
ENDBRANCH   5  47
BRANCH   2  50
HETATM   50  O2  IDS C   2      32.264  73.248  20.413  1.00 43.59    -0.244 OA
BRANCH  50  51
HETATM   51  S   IDS C   2      31.768  71.748  20.640  1.00 44.11     0.252 S 
HETATM   52  O1S IDS C   2      30.387  71.832  21.226  1.00 44.48    -0.572 OA
HETATM   53  O2S IDS C   2      32.727  71.110  21.566  1.00 44.29    -0.572 OA
HETATM   54  O3S IDS C   2      31.764  71.103  19.340  1.00 44.74    -0.572 OA
ENDBRANCH  50  51
ENDBRANCH   2  50
BRANCH   1  55
HETATM   55  O4  SGN C   1      30.780  74.940  18.295  1.00 44.73    -0.348 OA
BRANCH  55  56
HETATM   56  C4  SGN C   1      29.995  76.142  18.141  1.00 48.25     0.186 C 
HETATM   57  C3  SGN C   1      29.562  76.294  16.677  1.00 48.43     0.178 C 
HETATM   58  C2  SGN C   1      28.605  77.476  16.534  1.00 48.58     0.181 C 
HETATM   59  C1  SGN C   1      27.432  77.371  17.507  1.00 50.40     0.283 C 
HETATM   60  O5  SGN C   1      27.916  77.234  18.849  1.00 50.82    -0.349 OA
HETATM   61  C5  SGN C   1      28.746  76.064  19.034  1.00 51.58     0.181 C 
BRANCH  57  62
HETATM   62  O3  SGN C   1      30.699  76.510  15.856  1.00 46.09    -0.391 OA
ATOM     63  H3  SGN C   1      30.721  77.420  15.584  1.00  0.00     0.210 HD
ENDBRANCH  57  62
BRANCH  58  64
HETATM   64  N2  SGN C   1      28.104  77.560  15.177  1.00 48.56    -0.289 N 
ATOM     65  H2  SGN C   1      27.326  76.994  14.841  1.00  0.00     0.175 HD
BRANCH  64  66
HETATM   66  S1  SGN C   1      28.898  78.649  14.218  1.00 47.67     0.205 S 
HETATM   67  O1S SGN C   1      29.755  79.458  15.112  1.00 47.59    -0.578 OA
HETATM   68  O2S SGN C   1      27.846  79.446  13.578  1.00 48.55    -0.578 OA
HETATM   69  O3S SGN C   1      29.684  77.861  13.244  1.00 47.08    -0.578 OA
ENDBRANCH  64  66
ENDBRANCH  58  64
BRANCH  59  70
HETATM   70  O1  SGN C   1      26.661  76.260  17.198  1.00 51.36    -0.369 OA
ATOM     71  H1  SGN C   1      26.818  75.997  16.299  1.00  0.00     0.212 HD
ENDBRANCH  59  70
BRANCH  61  72
HETATM   72  C6  SGN C   1      29.084  76.002  20.503  1.00 55.48     0.227 C 
BRANCH  72  73
HETATM   73  O6  SGN C   1      28.243  75.025  21.151  1.00 61.59    -0.254 OA
BRANCH  73  74
HETATM   74  S2  SGN C   1      27.760  75.415  22.619  1.00 65.98     0.251 S 
HETATM   75  O4S SGN C   1      27.881  74.157  23.483  1.00 65.09    -0.572 OA
HETATM   76  O5S SGN C   1      26.383  75.856  22.498  1.00 65.58    -0.572 OA
HETATM   77  O6S SGN C   1      28.695  76.559  23.122  1.00 65.84    -0.572 OA
ENDBRANCH  73  74
ENDBRANCH  72  73
ENDBRANCH  61  72
ENDBRANCH  55  56
ENDBRANCH   1  55
TORSDOF 27
ENDMDL
MODEL 91
REMARK VINA RESULT:      -4.9      6.481     13.615
REMARK  27 active torsions:
REMARK  status: ('A' for Active; 'I' for Inactive)
REMARK    1  A    between atoms: C1_1  and  O1_2 
REMARK    2  A    between atoms: S1_5  and  N2_7 
REMARK    3  A    between atoms: C2_6  and  N2_7 
REMARK    4  A    between atoms: S2_10  and  O6_22 
REMARK    5  A    between atoms: C3_11  and  O3_12 
REMARK    6  A    between atoms: C4_15  and  O4_16 
REMARK    7  A    between atoms: O4_16  and  C1_24 
REMARK    8  A    between atoms: C5_18  and  C6_21 
REMARK    9  A    between atoms: C6_21  and  O6_22 
REMARK   10  A    between atoms: C2_26  and  O2_27 
REMARK   11  A    between atoms: O2_27  and  S_40 
REMARK   12  A    between atoms: C3_29  and  O3_30 
REMARK   13  A    between atoms: C4_33  and  O4_34 
REMARK   14  A    between atoms: O4_34  and  C1_41 
REMARK   15  A    between atoms: C5_35  and  C6_37 
REMARK   16  A    between atoms: S1_43  and  N2_45 
REMARK   17  A    between atoms: C2_44  and  N2_45 
REMARK   18  A    between atoms: S2_48  and  O6_60 
REMARK   19  A    between atoms: C3_49  and  O3_50 
REMARK   20  A    between atoms: C4_53  and  O4_54 
REMARK   21  A    between atoms: O4_54  and  C1_62 
REMARK   22  A    between atoms: C5_56  and  C6_59 
REMARK   23  A    between atoms: C6_59  and  O6_60 
REMARK   24  A    between atoms: C2_64  and  O2_65 
REMARK   25  A    between atoms: O2_65  and  S_77 
REMARK   26  A    between atoms: C3_67  and  O3_68 
REMARK   27  A    between atoms: C5_72  and  C6_74 
ROOT
HETATM    1  C1  IDS C   2      25.579  82.944  12.893  1.00 40.81     0.294 C 
HETATM    2  C2  IDS C   2      25.102  81.583  13.407  1.00 40.20     0.231 C 
HETATM    3  C3  IDS C   2      23.837  81.136  12.681  1.00 39.01     0.185 C 
HETATM    4  C4  IDS C   2      22.692  82.147  12.890  1.00 37.65     0.195 C 
HETATM    5  C5  IDS C   2      23.269  83.510  13.296  1.00 35.99     0.257 C 
HETATM    6  O5  IDS C   2      24.463  83.783  12.524  1.00 39.00    -0.340 OA
ENDROOT
BRANCH   4   7
HETATM    7  O4  IDS C   2      21.923  82.278  11.668  1.00 35.98    -0.348 OA
BRANCH   7   8
HETATM    8  C1  SGN C   3      20.679  81.630  11.651  1.00 35.40     0.287 C 
HETATM    9  C2  SGN C   3      20.487  80.889  10.316  1.00 33.71     0.182 C 
HETATM   10  C3  SGN C   3      20.217  81.848   9.151  1.00 35.79     0.178 C 
HETATM   11  C4  SGN C   3      19.157  82.904   9.509  1.00 36.62     0.186 C 
HETATM   12  C5  SGN C   3      19.487  83.542  10.852  1.00 39.32     0.181 C 
HETATM   13  O5  SGN C   3      19.605  82.528  11.866  1.00 37.58    -0.349 OA
BRANCH   9  14
HETATM   14  N2  SGN C   3      21.673  80.116  10.018  1.00 29.28    -0.289 N 
ATOM     15  H2  SGN C   3      22.560  80.572   9.806  1.00  0.00     0.175 HD
BRANCH  14  16
HETATM   16  S1  SGN C   3      21.538  78.470  10.032  1.00 27.84     0.205 S 
HETATM   17  O1S SGN C   3      20.319  78.198   9.294  1.00 27.65    -0.578 OA
HETATM   18  O2S SGN C   3      21.435  78.098  11.474  1.00 27.72    -0.578 OA
HETATM   19  O3S SGN C   3      22.744  77.866   9.383  1.00 28.50    -0.578 OA
ENDBRANCH  14  16
ENDBRANCH   9  14
BRANCH  10  20
HETATM   20  O3  SGN C   3      19.799  81.103   8.009  1.00 34.89    -0.391 OA
ATOM     21  H3  SGN C   3      18.908  80.801   8.138  1.00  0.00     0.210 HD
ENDBRANCH  10  20
BRANCH  11  22
HETATM   22  O4  SGN C   3      19.155  83.932   8.502  1.00 37.13    -0.348 OA
BRANCH  22  23
HETATM   23  C1  UAP C   4      17.959  84.093   7.821  1.00 39.64     0.294 C 
HETATM   24  C2  UAP C   4      18.062  85.259   6.854  1.00 38.70     0.228 C 
HETATM   25  C3  UAP C   4      16.715  85.496   6.176  1.00 38.51     0.156 C 
HETATM   26  C4  UAP C   4      15.966  84.154   5.737  1.00 38.14     0.077 C 
HETATM   27  C5  UAP C   4      16.539  82.974   6.232  1.00 38.51     0.228 C 
HETATM   28  O5  UAP C   4      17.716  82.900   7.086  1.00 37.46    -0.343 OA
BRANCH  24  29
HETATM   29  O2  UAP C   4      18.406  86.484   7.578  1.00 40.54    -0.244 OA
BRANCH  29  30
HETATM   30  S   UAP C   4      17.317  87.251   8.466  1.00 40.49     0.252 S 
HETATM   31  O1S UAP C   4      18.049  87.942   9.538  1.00 40.89    -0.572 OA
HETATM   32  O2S UAP C   4      16.409  86.227   9.002  1.00 37.88    -0.572 OA
HETATM   33  O3S UAP C   4      16.622  88.196   7.577  1.00 37.47    -0.572 OA
ENDBRANCH  29  30
ENDBRANCH  24  29
BRANCH  25  34
HETATM   34  O3  UAP C   4      16.911  86.318   5.036  1.00 38.58    -0.393 OA
ATOM     35  H3  UAP C   4      17.759  86.741   5.102  1.00  0.00     0.210 HD
ENDBRANCH  25  34
BRANCH  27  36
HETATM   36  C6  UAP C   4      16.005  81.624   5.898  1.00 37.96     0.203 C 
HETATM   37  O6A UAP C   4      16.811  80.676   5.817  1.00 40.05    -0.646 OA
HETATM   38  O6B UAP C   4      14.775  81.503   5.713  1.00 36.71    -0.646 OA
ENDBRANCH  27  36
ENDBRANCH  22  23
ENDBRANCH  11  22
BRANCH  12  39
HETATM   39  C6  SGN C   3      18.463  84.532  11.334  1.00 42.65     0.227 C 
BRANCH  39  40
HETATM   40  O6  SGN C   3      17.482  83.758  12.057  1.00 51.09    -0.254 OA
BRANCH  40  41
HETATM   41  S2  SGN C   3      16.870  84.435  13.366  1.00 54.80     0.251 S 
HETATM   42  O4S SGN C   3      15.530  83.858  13.577  1.00 54.99    -0.572 OA
HETATM   43  O5S SGN C   3      16.806  85.902  13.097  1.00 53.99    -0.572 OA
HETATM   44  O6S SGN C   3      17.773  84.119  14.466  1.00 55.43    -0.572 OA
ENDBRANCH  40  41
ENDBRANCH  39  40
ENDBRANCH  12  39
ENDBRANCH   7   8
ENDBRANCH   4   7
BRANCH   3  45
HETATM   45  O3  IDS C   2      23.443  79.856  13.159  1.00 39.65    -0.390 OA
ATOM     46  H3  IDS C   2      23.612  79.203  12.492  1.00  0.00     0.210 HD
ENDBRANCH   3  45
BRANCH   5  47
HETATM   47  C6  IDS C   2      22.320  84.688  13.120  1.00 36.10     0.206 C 
HETATM   48  O6A IDS C   2      21.313  84.737  13.860  1.00 32.44    -0.646 OA
HETATM   49  O6B IDS C   2      22.600  85.555  12.258  1.00 33.44    -0.646 OA
ENDBRANCH   5  47
BRANCH   2  50
HETATM   50  O2  IDS C   2      26.137  80.582  13.180  1.00 43.59    -0.244 OA
BRANCH  50  51
HETATM   51  S   IDS C   2      26.382  79.441  14.269  1.00 44.11     0.252 S 
HETATM   52  O1S IDS C   2      25.578  79.817  15.481  1.00 44.48    -0.572 OA
HETATM   53  O2S IDS C   2      27.833  79.414  14.549  1.00 44.29    -0.572 OA
HETATM   54  O3S IDS C   2      25.924  78.194  13.682  1.00 44.74    -0.572 OA
ENDBRANCH  50  51
ENDBRANCH   2  50
BRANCH   1  55
HETATM   55  O4  SGN C   1      26.305  83.585  13.886  1.00 44.73    -0.348 OA
BRANCH  55  56
HETATM   56  C4  SGN C   1      27.432  84.392  13.478  1.00 48.25     0.186 C 
HETATM   57  C3  SGN C   1      27.124  85.874  13.722  1.00 48.43     0.178 C 
HETATM   58  C2  SGN C   1      28.365  86.721  13.440  1.00 48.58     0.181 C 
HETATM   59  C1  SGN C   1      29.578  86.216  14.218  1.00 50.40     0.283 C 
HETATM   60  O5  SGN C   1      29.802  84.829  13.937  1.00 50.82    -0.349 OA
HETATM   61  C5  SGN C   1      28.676  83.992  14.289  1.00 51.58     0.181 C 
BRANCH  57  62
HETATM   62  O3  SGN C   1      26.067  86.295  12.875  1.00 46.09    -0.391 OA
ATOM     63  H3  SGN C   1      25.845  85.590  12.277  1.00  0.00     0.210 HD
ENDBRANCH  57  62
BRANCH  58  64
HETATM   64  N2  SGN C   1      28.117  88.109  13.773  1.00 48.56    -0.289 N 
ATOM     65  H2  SGN C   1      27.854  88.412  14.711  1.00  0.00     0.175 HD
BRANCH  64  66
HETATM   66  S1  SGN C   1      28.293  89.161  12.509  1.00 47.67     0.205 S 
HETATM   67  O1S SGN C   1      27.803  90.476  12.979  1.00 47.59    -0.578 OA
HETATM   68  O2S SGN C   1      27.472  88.612  11.426  1.00 48.55    -0.578 OA
HETATM   69  O3S SGN C   1      29.734  89.184  12.175  1.00 47.08    -0.578 OA
ENDBRANCH  64  66
ENDBRANCH  58  64
BRANCH  59  70
HETATM   70  O1  SGN C   1      29.360  86.362  15.580  1.00 51.36    -0.369 OA
ATOM     71  H1  SGN C   1      29.734  87.182  15.881  1.00  0.00     0.212 HD
ENDBRANCH  59  70
BRANCH  61  72
HETATM   72  C6  SGN C   1      29.102  82.567  14.036  1.00 55.48     0.227 C 
BRANCH  72  73
HETATM   73  O6  SGN C   1      30.404  82.556  13.412  1.00 61.59    -0.254 OA
BRANCH  73  74
HETATM   74  S2  SGN C   1      31.529  81.759  14.211  1.00 65.98     0.251 S 
HETATM   75  O4S SGN C   1      31.234  80.267  14.038  1.00 65.09    -0.572 OA
HETATM   76  O5S SGN C   1      31.425  82.173  15.598  1.00 65.58    -0.572 OA
HETATM   77  O6S SGN C   1      32.904  82.156  13.588  1.00 65.84    -0.572 OA
ENDBRANCH  73  74
ENDBRANCH  72  73
ENDBRANCH  61  72
ENDBRANCH  55  56
ENDBRANCH   1  55
TORSDOF 27
ENDMDL
MODEL 92
REMARK VINA RESULT:      -4.9      7.297     12.560
REMARK  27 active torsions:
REMARK  status: ('A' for Active; 'I' for Inactive)
REMARK    1  A    between atoms: C1_1  and  O1_2 
REMARK    2  A    between atoms: S1_5  and  N2_7 
REMARK    3  A    between atoms: C2_6  and  N2_7 
REMARK    4  A    between atoms: S2_10  and  O6_22 
REMARK    5  A    between atoms: C3_11  and  O3_12 
REMARK    6  A    between atoms: C4_15  and  O4_16 
REMARK    7  A    between atoms: O4_16  and  C1_24 
REMARK    8  A    between atoms: C5_18  and  C6_21 
REMARK    9  A    between atoms: C6_21  and  O6_22 
REMARK   10  A    between atoms: C2_26  and  O2_27 
REMARK   11  A    between atoms: O2_27  and  S_40 
REMARK   12  A    between atoms: C3_29  and  O3_30 
REMARK   13  A    between atoms: C4_33  and  O4_34 
REMARK   14  A    between atoms: O4_34  and  C1_41 
REMARK   15  A    between atoms: C5_35  and  C6_37 
REMARK   16  A    between atoms: S1_43  and  N2_45 
REMARK   17  A    between atoms: C2_44  and  N2_45 
REMARK   18  A    between atoms: S2_48  and  O6_60 
REMARK   19  A    between atoms: C3_49  and  O3_50 
REMARK   20  A    between atoms: C4_53  and  O4_54 
REMARK   21  A    between atoms: O4_54  and  C1_62 
REMARK   22  A    between atoms: C5_56  and  C6_59 
REMARK   23  A    between atoms: C6_59  and  O6_60 
REMARK   24  A    between atoms: C2_64  and  O2_65 
REMARK   25  A    between atoms: O2_65  and  S_77 
REMARK   26  A    between atoms: C3_67  and  O3_68 
REMARK   27  A    between atoms: C5_72  and  C6_74 
ROOT
HETATM    1  C1  IDS C   2      32.245  72.800  17.873  1.00 40.81     0.294 C 
HETATM    2  C2  IDS C   2      31.612  72.539  19.241  1.00 40.20     0.231 C 
HETATM    3  C3  IDS C   2      32.623  71.925  20.206  1.00 39.01     0.185 C 
HETATM    4  C4  IDS C   2      33.155  70.582  19.667  1.00 37.65     0.195 C 
HETATM    5  C5  IDS C   2      32.940  70.507  18.150  1.00 35.99     0.257 C 
HETATM    6  O5  IDS C   2      33.230  71.793  17.553  1.00 39.00    -0.340 OA
ENDROOT
BRANCH   4   7
HETATM    7  O4  IDS C   2      34.566  70.453  19.975  1.00 35.98    -0.348 OA
BRANCH   7   8
HETATM    8  C1  SGN C   3      35.186  71.592  20.508  1.00 35.40     0.287 C 
HETATM    9  C2  SGN C   3      36.424  71.961  19.672  1.00 33.71     0.182 C 
HETATM   10  C3  SGN C   3      37.589  70.989  19.895  1.00 35.79     0.178 C 
HETATM   11  C4  SGN C   3      37.827  70.711  21.389  1.00 36.62     0.186 C 
HETATM   12  C5  SGN C   3      36.511  70.364  22.073  1.00 39.32     0.181 C 
HETATM   13  O5  SGN C   3      35.553  71.417  21.865  1.00 37.58    -0.349 OA
BRANCH   9  14
HETATM   14  N2  SGN C   3      36.077  71.957  18.268  1.00 29.28    -0.289 N 
ATOM     15  H2  SGN C   3      35.649  71.140  17.832  1.00  0.00     0.175 HD
BRANCH  14  16
HETATM   16  S1  SGN C   3      36.399  73.321  17.395  1.00 27.84     0.205 S 
HETATM   17  O1S SGN C   3      37.845  73.347  17.278  1.00 27.65    -0.578 OA
HETATM   18  O2S SGN C   3      35.866  74.447  18.217  1.00 27.72    -0.578 OA
HETATM   19  O3S SGN C   3      35.721  73.231  16.063  1.00 28.50    -0.578 OA
ENDBRANCH  14  16
ENDBRANCH   9  14
BRANCH  10  20
HETATM   20  O3  SGN C   3      38.771  71.520  19.301  1.00 34.89    -0.391 OA
ATOM     21  H3  SGN C   3      38.577  72.362  18.907  1.00  0.00     0.210 HD
ENDBRANCH  10  20
BRANCH  11  22
HETATM   22  O4  SGN C   3      38.722  69.593  21.525  1.00 37.13    -0.348 OA
BRANCH  22  23
HETATM   23  C1  UAP C   4      39.961  69.747  20.921  1.00 39.64     0.294 C 
HETATM   24  C2  UAP C   4      40.888  70.537  21.827  1.00 38.70     0.228 C 
HETATM   25  C3  UAP C   4      42.218  70.790  21.122  1.00 38.51     0.156 C 
HETATM   26  C4  UAP C   4      42.771  69.528  20.311  1.00 38.14     0.077 C 
HETATM   27  C5  UAP C   4      41.862  68.468  20.183  1.00 38.51     0.228 C 
HETATM   28  O5  UAP C   4      40.506  68.451  20.714  1.00 37.46    -0.343 OA
BRANCH  24  29
HETATM   29  O2  UAP C   4      40.302  71.843  22.132  1.00 40.54    -0.244 OA
BRANCH  29  30
HETATM   30  S   UAP C   4      40.361  72.449  23.612  1.00 40.49     0.252 S 
HETATM   31  O1S UAP C   4      39.183  73.313  23.769  1.00 40.89    -0.572 OA
HETATM   32  O2S UAP C   4      41.613  73.215  23.707  1.00 37.88    -0.572 OA
HETATM   33  O3S UAP C   4      40.338  71.312  24.546  1.00 37.47    -0.572 OA
ENDBRANCH  29  30
ENDBRANCH  24  29
BRANCH  25  34
HETATM   34  O3  UAP C   4      43.182  71.188  22.084  1.00 38.58    -0.393 OA
ATOM     35  H3  UAP C   4      42.856  70.982  22.952  1.00  0.00     0.210 HD
ENDBRANCH  25  34
BRANCH  27  36
HETATM   36  C6  UAP C   4      42.210  67.193  19.496  1.00 37.96     0.203 C 
HETATM   37  O6A UAP C   4      41.604  66.907  18.444  1.00 40.05    -0.646 OA
HETATM   38  O6B UAP C   4      43.090  66.468  20.006  1.00 36.71    -0.646 OA
ENDBRANCH  27  36
ENDBRANCH  22  23
ENDBRANCH  11  22
BRANCH  12  39
HETATM   39  C6  SGN C   3      36.624  70.156  23.558  1.00 42.65     0.227 C 
BRANCH  39  40
HETATM   40  O6  SGN C   3      36.038  68.862  23.816  1.00 51.09    -0.254 OA
BRANCH  40  41
HETATM   41  S2  SGN C   3      35.459  68.627  25.285  1.00 54.80     0.251 S 
HETATM   42  O4S SGN C   3      34.640  67.401  25.246  1.00 54.99    -0.572 OA
HETATM   43  O5S SGN C   3      34.639  69.830  25.617  1.00 53.99    -0.572 OA
HETATM   44  O6S SGN C   3      36.605  68.483  26.173  1.00 55.43    -0.572 OA
ENDBRANCH  40  41
ENDBRANCH  39  40
ENDBRANCH  12  39
ENDBRANCH   7   8
ENDBRANCH   4   7
BRANCH   3  45
HETATM   45  O3  IDS C   2      32.010  71.727  21.473  1.00 39.65    -0.390 OA
ATOM     46  H3  IDS C   2      32.132  72.503  22.007  1.00  0.00     0.210 HD
ENDBRANCH   3  45
BRANCH   5  47
HETATM   47  C6  IDS C   2      33.780  69.459  17.432  1.00 36.10     0.206 C 
HETATM   48  O6A IDS C   2      33.524  68.256  17.659  1.00 32.44    -0.646 OA
HETATM   49  O6B IDS C   2      34.672  69.850  16.642  1.00 33.44    -0.646 OA
ENDBRANCH   5  47
BRANCH   2  50
HETATM   50  O2  IDS C   2      31.141  73.794  19.813  1.00 43.59    -0.244 OA
BRANCH  50  51
HETATM   51  S   IDS C   2      32.154  75.017  19.973  1.00 44.11     0.252 S 
HETATM   52  O1S IDS C   2      31.361  76.168  20.523  1.00 44.48    -0.572 OA
HETATM   53  O2S IDS C   2      32.700  75.307  18.630  1.00 44.29    -0.572 OA
HETATM   54  O3S IDS C   2      33.191  74.587  20.894  1.00 44.74    -0.572 OA
ENDBRANCH  50  51
ENDBRANCH   2  50
BRANCH   1  55
HETATM   55  O4  SGN C   1      31.260  72.782  16.896  1.00 44.73    -0.348 OA
BRANCH  55  56
HETATM   56  C4  SGN C   1      31.686  72.758  15.516  1.00 48.25     0.186 C 
HETATM   57  C3  SGN C   1      30.897  71.690  14.748  1.00 48.43     0.178 C 
HETATM   58  C2  SGN C   1      31.229  71.763  13.258  1.00 48.58     0.181 C 
HETATM   59  C1  SGN C   1      31.035  73.175  12.708  1.00 50.40     0.283 C 
HETATM   60  O5  SGN C   1      31.803  74.112  13.473  1.00 50.82    -0.349 OA
HETATM   61  C5  SGN C   1      31.437  74.133  14.872  1.00 51.58     0.181 C 
BRANCH  57  62
HETATM   62  O3  SGN C   1      31.225  70.400  15.239  1.00 46.09    -0.391 OA
ATOM     63  H3  SGN C   1      31.653  69.902  14.551  1.00  0.00     0.210 HD
ENDBRANCH  57  62
BRANCH  58  64
HETATM   64  N2  SGN C   1      30.407  70.833  12.511  1.00 48.56    -0.289 N 
ATOM     65  H2  SGN C   1      29.388  70.865  12.525  1.00  0.00     0.175 HD
BRANCH  64  66
HETATM   66  S1  SGN C   1      31.256  69.715  11.635  1.00 47.67     0.205 S 
HETATM   67  O1S SGN C   1      32.077  70.471  10.664  1.00 47.59    -0.578 OA
HETATM   68  O2S SGN C   1      30.243  68.881  10.982  1.00 48.55    -0.578 OA
HETATM   69  O3S SGN C   1      32.080  68.957  12.601  1.00 47.08    -0.578 OA
ENDBRANCH  64  66
ENDBRANCH  58  64
BRANCH  59  70
HETATM   70  O1  SGN C   1      29.697  73.531  12.784  1.00 51.36    -0.369 OA
ATOM     71  H1  SGN C   1      29.376  73.398  13.668  1.00  0.00     0.212 HD
ENDBRANCH  59  70
BRANCH  61  72
HETATM   72  C6  SGN C   1      32.249  75.230  15.514  1.00 55.48     0.227 C 
BRANCH  72  73
HETATM   73  O6  SGN C   1      33.533  75.326  14.861  1.00 61.59    -0.254 OA
BRANCH  73  74
HETATM   74  S2  SGN C   1      34.023  76.809  14.546  1.00 65.98     0.251 S 
HETATM   75  O4S SGN C   1      32.771  77.672  14.374  1.00 65.09    -0.572 OA
HETATM   76  O5S SGN C   1      34.802  76.737  13.323  1.00 65.58    -0.572 OA
HETATM   77  O6S SGN C   1      34.889  77.275  15.759  1.00 65.84    -0.572 OA
ENDBRANCH  73  74
ENDBRANCH  72  73
ENDBRANCH  61  72
ENDBRANCH  55  56
ENDBRANCH   1  55
TORSDOF 27
ENDMDL
MODEL 93
REMARK VINA RESULT:      -4.9      6.789     14.097
REMARK  27 active torsions:
REMARK  status: ('A' for Active; 'I' for Inactive)
REMARK    1  A    between atoms: C1_1  and  O1_2 
REMARK    2  A    between atoms: S1_5  and  N2_7 
REMARK    3  A    between atoms: C2_6  and  N2_7 
REMARK    4  A    between atoms: S2_10  and  O6_22 
REMARK    5  A    between atoms: C3_11  and  O3_12 
REMARK    6  A    between atoms: C4_15  and  O4_16 
REMARK    7  A    between atoms: O4_16  and  C1_24 
REMARK    8  A    between atoms: C5_18  and  C6_21 
REMARK    9  A    between atoms: C6_21  and  O6_22 
REMARK   10  A    between atoms: C2_26  and  O2_27 
REMARK   11  A    between atoms: O2_27  and  S_40 
REMARK   12  A    between atoms: C3_29  and  O3_30 
REMARK   13  A    between atoms: C4_33  and  O4_34 
REMARK   14  A    between atoms: O4_34  and  C1_41 
REMARK   15  A    between atoms: C5_35  and  C6_37 
REMARK   16  A    between atoms: S1_43  and  N2_45 
REMARK   17  A    between atoms: C2_44  and  N2_45 
REMARK   18  A    between atoms: S2_48  and  O6_60 
REMARK   19  A    between atoms: C3_49  and  O3_50 
REMARK   20  A    between atoms: C4_53  and  O4_54 
REMARK   21  A    between atoms: O4_54  and  C1_62 
REMARK   22  A    between atoms: C5_56  and  C6_59 
REMARK   23  A    between atoms: C6_59  and  O6_60 
REMARK   24  A    between atoms: C2_64  and  O2_65 
REMARK   25  A    between atoms: O2_65  and  S_77 
REMARK   26  A    between atoms: C3_67  and  O3_68 
REMARK   27  A    between atoms: C5_72  and  C6_74 
ROOT
HETATM    1  C1  IDS C   2      24.884  81.210  12.059  1.00 40.81     0.294 C 
HETATM    2  C2  IDS C   2      24.500  82.663  12.348  1.00 40.20     0.231 C 
HETATM    3  C3  IDS C   2      23.235  83.058  11.591  1.00 39.01     0.185 C 
HETATM    4  C4  IDS C   2      23.435  82.916  10.069  1.00 37.65     0.195 C 
HETATM    5  C5  IDS C   2      24.599  81.959   9.783  1.00 35.99     0.257 C 
HETATM    6  O5  IDS C   2      24.548  80.842  10.702  1.00 39.00    -0.340 OA
ENDROOT
BRANCH   4   7
HETATM    7  O4  IDS C   2      22.219  82.415   9.458  1.00 35.98    -0.348 OA
BRANCH   7   8
HETATM    8  C1  SGN C   3      21.277  81.854  10.332  1.00 35.40     0.287 C 
HETATM    9  C2  SGN C   3      20.345  80.900   9.564  1.00 33.71     0.182 C 
HETATM   10  C3  SGN C   3      19.351  81.651   8.670  1.00 35.79     0.178 C 
HETATM   11  C4  SGN C   3      18.678  82.818   9.412  1.00 36.62     0.186 C 
HETATM   12  C5  SGN C   3      19.730  83.664  10.119  1.00 39.32     0.181 C 
HETATM   13  O5  SGN C   3      20.514  82.842  11.002  1.00 37.58    -0.349 OA
BRANCH   9  14
HETATM   14  N2  SGN C   3      21.135  80.013   8.739  1.00 29.28    -0.289 N 
ATOM     15  H2  SGN C   3      21.785  80.379   8.044  1.00  0.00     0.175 HD
BRANCH  14  16
HETATM   16  S1  SGN C   3      20.947  78.388   8.963  1.00 27.84     0.205 S 
HETATM   17  O1S SGN C   3      19.799  78.038   8.148  1.00 27.65    -0.578 OA
HETATM   18  O2S SGN C   3      20.690  78.221  10.424  1.00 27.72    -0.578 OA
HETATM   19  O3S SGN C   3      22.192  77.678   8.529  1.00 28.50    -0.578 OA
ENDBRANCH  14  16
ENDBRANCH   9  14
BRANCH  10  20
HETATM   20  O3  SGN C   3      18.363  80.742   8.190  1.00 34.89    -0.391 OA
ATOM     21  H3  SGN C   3      17.960  81.097   7.406  1.00  0.00     0.210 HD
ENDBRANCH  10  20
BRANCH  11  22
HETATM   22  O4  SGN C   3      17.988  83.648   8.460  1.00 37.13    -0.348 OA
BRANCH  22  23
HETATM   23  C1  UAP C   4      16.677  83.960   8.786  1.00 39.64     0.294 C 
HETATM   24  C2  UAP C   4      15.749  83.559   7.654  1.00 38.70     0.228 C 
HETATM   25  C3  UAP C   4      14.320  83.990   7.971  1.00 38.51     0.156 C 
HETATM   26  C4  UAP C   4      13.889  83.737   9.490  1.00 38.14     0.077 C 
HETATM   27  C5  UAP C   4      14.940  83.372  10.344  1.00 38.51     0.228 C 
HETATM   28  O5  UAP C   4      16.334  83.223   9.952  1.00 37.46    -0.343 OA
BRANCH  24  29
HETATM   29  O2  UAP C   4      16.143  84.235   6.417  1.00 40.54    -0.244 OA
BRANCH  29  30
HETATM   30  S   UAP C   4      15.831  85.788   6.190  1.00 40.49     0.252 S 
HETATM   31  O1S UAP C   4      14.428  85.886   5.763  1.00 40.89    -0.572 OA
HETATM   32  O2S UAP C   4      16.751  86.257   5.143  1.00 37.88    -0.572 OA
HETATM   33  O3S UAP C   4      16.064  86.468   7.474  1.00 37.47    -0.572 OA
ENDBRANCH  29  30
ENDBRANCH  24  29
BRANCH  25  34
HETATM   34  O3  UAP C   4      13.427  83.301   7.110  1.00 38.58    -0.393 OA
ATOM     35  H3  UAP C   4      13.028  82.584   7.588  1.00  0.00     0.210 HD
ENDBRANCH  25  34
BRANCH  27  36
HETATM   36  C6  UAP C   4      14.727  83.057  11.784  1.00 37.96     0.203 C 
HETATM   37  O6A UAP C   4      14.293  81.926  12.081  1.00 40.05    -0.646 OA
HETATM   38  O6B UAP C   4      14.991  83.939  12.628  1.00 36.71    -0.646 OA
ENDBRANCH  27  36
ENDBRANCH  22  23
ENDBRANCH  11  22
BRANCH  12  39
HETATM   39  C6  SGN C   3      19.165  84.786  10.945  1.00 42.65     0.227 C 
BRANCH  39  40
HETATM   40  O6  SGN C   3      20.034  84.901  12.094  1.00 51.09    -0.254 OA
BRANCH  40  41
HETATM   41  S2  SGN C   3      19.348  85.375  13.455  1.00 54.80     0.251 S 
HETATM   42  O4S SGN C   3      19.006  84.164  14.222  1.00 54.99    -0.572 OA
HETATM   43  O5S SGN C   3      18.132  86.151  13.072  1.00 53.99    -0.572 OA
HETATM   44  O6S SGN C   3      20.325  86.200  14.154  1.00 55.43    -0.572 OA
ENDBRANCH  40  41
ENDBRANCH  39  40
ENDBRANCH  12  39
ENDBRANCH   7   8
ENDBRANCH   4   7
BRANCH   3  45
HETATM   45  O3  IDS C   2      22.891  84.399  11.909  1.00 39.65    -0.390 OA
ATOM     46  H3  IDS C   2      22.804  84.489  12.851  1.00  0.00     0.210 HD
ENDBRANCH   3  45
BRANCH   5  47
HETATM   47  C6  IDS C   2      24.637  81.397   8.368  1.00 36.10     0.206 C 
HETATM   48  O6A IDS C   2      24.269  80.213   8.204  1.00 32.44    -0.646 OA
HETATM   49  O6B IDS C   2      25.019  82.148   7.439  1.00 33.44    -0.646 OA
ENDBRANCH   5  47
BRANCH   2  50
HETATM   50  O2  IDS C   2      24.250  82.830  13.774  1.00 43.59    -0.244 OA
BRANCH  50  51
HETATM   51  S   IDS C   2      23.173  81.903  14.499  1.00 44.11     0.252 S 
HETATM   52  O1S IDS C   2      22.721  80.888  13.487  1.00 44.48    -0.572 OA
HETATM   53  O2S IDS C   2      22.068  82.782  14.938  1.00 44.29    -0.572 OA
HETATM   54  O3S IDS C   2      23.844  81.280  15.626  1.00 44.74    -0.572 OA
ENDBRANCH  50  51
ENDBRANCH   2  50
BRANCH   1  55
HETATM   55  O4  SGN C   1      26.250  81.047  12.236  1.00 44.73    -0.348 OA
BRANCH  55  56
HETATM   56  C4  SGN C   1      26.721  80.737  13.565  1.00 48.25     0.186 C 
HETATM   57  C3  SGN C   1      26.509  79.246  13.856  1.00 48.43     0.178 C 
HETATM   58  C2  SGN C   1      27.144  78.877  15.196  1.00 48.58     0.181 C 
HETATM   59  C1  SGN C   1      28.609  79.306  15.261  1.00 50.40     0.283 C 
HETATM   60  O5  SGN C   1      28.725  80.707  14.981  1.00 50.82    -0.349 OA
HETATM   61  C5  SGN C   1      28.220  81.066  13.674  1.00 51.58     0.181 C 
BRANCH  57  62
HETATM   62  O3  SGN C   1      25.121  78.955  13.899  1.00 46.09    -0.391 OA
ATOM     63  H3  SGN C   1      24.652  79.711  14.231  1.00  0.00     0.210 HD
ENDBRANCH  57  62
BRANCH  58  64
HETATM   64  N2  SGN C   1      27.045  77.451  15.427  1.00 48.56    -0.289 N 
ATOM     65  H2  SGN C   1      27.559  76.766  14.873  1.00  0.00     0.175 HD
BRANCH  64  66
HETATM   66  S1  SGN C   1      26.030  77.023  16.662  1.00 47.67     0.205 S 
HETATM   67  O1S SGN C   1      26.855  76.962  17.888  1.00 47.59    -0.578 OA
HETATM   68  O2S SGN C   1      25.487  75.714  16.285  1.00 48.55    -0.578 OA
HETATM   69  O3S SGN C   1      24.987  78.070  16.735  1.00 47.08    -0.578 OA
ENDBRANCH  64  66
ENDBRANCH  58  64
BRANCH  59  70
HETATM   70  O1  SGN C   1      29.348  78.604  14.321  1.00 51.36    -0.369 OA
ATOM     71  H1  SGN C   1      30.253  78.893  14.339  1.00  0.00     0.212 HD
ENDBRANCH  59  70
BRANCH  61  72
HETATM   72  C6  SGN C   1      28.507  82.535  13.490  1.00 55.48     0.227 C 
BRANCH  72  73
HETATM   73  O6  SGN C   1      28.939  83.104  14.745  1.00 61.59    -0.254 OA
BRANCH  73  74
HETATM   74  S2  SGN C   1      28.546  84.633  14.965  1.00 65.98     0.251 S 
HETATM   75  O4S SGN C   1      28.380  84.843  16.472  1.00 65.09    -0.572 OA
HETATM   76  O5S SGN C   1      27.301  84.847  14.250  1.00 65.58    -0.572 OA
HETATM   77  O6S SGN C   1      29.708  85.496  14.381  1.00 65.84    -0.572 OA
ENDBRANCH  73  74
ENDBRANCH  72  73
ENDBRANCH  61  72
ENDBRANCH  55  56
ENDBRANCH   1  55
TORSDOF 27
ENDMDL
MODEL 94
REMARK VINA RESULT:      -4.9     10.304     16.249
REMARK  27 active torsions:
REMARK  status: ('A' for Active; 'I' for Inactive)
REMARK    1  A    between atoms: C1_1  and  O1_2 
REMARK    2  A    between atoms: S1_5  and  N2_7 
REMARK    3  A    between atoms: C2_6  and  N2_7 
REMARK    4  A    between atoms: S2_10  and  O6_22 
REMARK    5  A    between atoms: C3_11  and  O3_12 
REMARK    6  A    between atoms: C4_15  and  O4_16 
REMARK    7  A    between atoms: O4_16  and  C1_24 
REMARK    8  A    between atoms: C5_18  and  C6_21 
REMARK    9  A    between atoms: C6_21  and  O6_22 
REMARK   10  A    between atoms: C2_26  and  O2_27 
REMARK   11  A    between atoms: O2_27  and  S_40 
REMARK   12  A    between atoms: C3_29  and  O3_30 
REMARK   13  A    between atoms: C4_33  and  O4_34 
REMARK   14  A    between atoms: O4_34  and  C1_41 
REMARK   15  A    between atoms: C5_35  and  C6_37 
REMARK   16  A    between atoms: S1_43  and  N2_45 
REMARK   17  A    between atoms: C2_44  and  N2_45 
REMARK   18  A    between atoms: S2_48  and  O6_60 
REMARK   19  A    between atoms: C3_49  and  O3_50 
REMARK   20  A    between atoms: C4_53  and  O4_54 
REMARK   21  A    between atoms: O4_54  and  C1_62 
REMARK   22  A    between atoms: C5_56  and  C6_59 
REMARK   23  A    between atoms: C6_59  and  O6_60 
REMARK   24  A    between atoms: C2_64  and  O2_65 
REMARK   25  A    between atoms: O2_65  and  S_77 
REMARK   26  A    between atoms: C3_67  and  O3_68 
REMARK   27  A    between atoms: C5_72  and  C6_74 
ROOT
HETATM    1  C1  IDS C   2      19.754  79.106   4.180  1.00 40.81     0.294 C 
HETATM    2  C2  IDS C   2      21.267  78.971   4.367  1.00 40.20     0.231 C 
HETATM    3  C3  IDS C   2      21.779  79.952   5.419  1.00 39.01     0.185 C 
HETATM    4  C4  IDS C   2      21.481  81.408   5.008  1.00 37.65     0.195 C 
HETATM    5  C5  IDS C   2      20.343  81.437   3.980  1.00 35.99     0.257 C 
HETATM    6  O5  IDS C   2      19.327  80.475   4.352  1.00 39.00    -0.340 OA
ENDROOT
BRANCH   4   7
HETATM    7  O4  IDS C   2      21.116  82.184   6.177  1.00 35.98    -0.348 OA
BRANCH   7   8
HETATM    8  C1  SGN C   3      20.843  81.452   7.341  1.00 35.40     0.287 C 
HETATM    9  C2  SGN C   3      19.506  81.906   7.952  1.00 33.71     0.182 C 
HETATM   10  C3  SGN C   3      19.606  83.285   8.614  1.00 35.79     0.178 C 
HETATM   11  C4  SGN C   3      20.847  83.401   9.516  1.00 36.62     0.186 C 
HETATM   12  C5  SGN C   3      22.083  82.913   8.771  1.00 39.32     0.181 C 
HETATM   13  O5  SGN C   3      21.879  81.568   8.301  1.00 37.58    -0.349 OA
BRANCH   9  14
HETATM   14  N2  SGN C   3      18.496  81.959   6.917  1.00 29.28    -0.289 N 
ATOM     15  H2  SGN C   3      18.715  82.307   5.984  1.00  0.00     0.175 HD
BRANCH  14  16
HETATM   16  S1  SGN C   3      16.977  81.436   7.302  1.00 27.84     0.205 S 
HETATM   17  O1S SGN C   3      16.220  82.653   7.528  1.00 27.65    -0.578 OA
HETATM   18  O2S SGN C   3      17.145  80.622   8.541  1.00 27.72    -0.578 OA
HETATM   19  O3S SGN C   3      16.429  80.626   6.169  1.00 28.50    -0.578 OA
ENDBRANCH  14  16
ENDBRANCH   9  14
BRANCH  10  20
HETATM   20  O3  SGN C   3      18.425  83.535   9.373  1.00 34.89    -0.391 OA
ATOM     21  H3  SGN C   3      17.695  83.682   8.783  1.00  0.00     0.210 HD
ENDBRANCH  10  20
BRANCH  11  22
HETATM   22  O4  SGN C   3      21.044  84.780   9.874  1.00 37.13    -0.348 OA
BRANCH  22  23
HETATM   23  C1  UAP C   4      20.951  85.061  11.228  1.00 39.64     0.294 C 
HETATM   24  C2  UAP C   4      21.255  86.527  11.480  1.00 38.70     0.228 C 
HETATM   25  C3  UAP C   4      21.248  86.813  12.979  1.00 38.51     0.156 C 
HETATM   26  C4  UAP C   4      20.060  86.093  13.770  1.00 38.14     0.077 C 
HETATM   27  C5  UAP C   4      19.349  85.143  13.023  1.00 38.51     0.228 C 
HETATM   28  O5  UAP C   4      19.618  84.785  11.637  1.00 37.46    -0.343 OA
BRANCH  24  29
HETATM   29  O2  UAP C   4      22.591  86.857  10.980  1.00 40.54    -0.244 OA
BRANCH  29  30
HETATM   30  S   UAP C   4      22.821  88.104  10.003  1.00 40.49     0.252 S 
HETATM   31  O1S UAP C   4      21.866  87.961   8.894  1.00 40.89    -0.572 OA
HETATM   32  O2S UAP C   4      24.213  88.024   9.535  1.00 37.88    -0.572 OA
HETATM   33  O3S UAP C   4      22.572  89.322  10.790  1.00 37.47    -0.572 OA
ENDBRANCH  29  30
ENDBRANCH  24  29
BRANCH  25  34
HETATM   34  O3  UAP C   4      21.164  88.214  13.181  1.00 38.58    -0.393 OA
ATOM     35  H3  UAP C   4      21.185  88.650  12.337  1.00  0.00     0.210 HD
ENDBRANCH  25  34
BRANCH  27  36
HETATM   36  C6  UAP C   4      18.184  84.398  13.576  1.00 37.96     0.203 C 
HETATM   37  O6A UAP C   4      18.188  84.115  14.790  1.00 40.05    -0.646 OA
HETATM   38  O6B UAP C   4      17.256  84.089  12.798  1.00 36.71    -0.646 OA
ENDBRANCH  27  36
ENDBRANCH  22  23
ENDBRANCH  11  22
BRANCH  12  39
HETATM   39  C6  SGN C   3      23.339  82.906   9.596  1.00 42.65     0.227 C 
BRANCH  39  40
HETATM   40  O6  SGN C   3      23.491  81.550  10.067  1.00 51.09    -0.254 OA
BRANCH  40  41
HETATM   41  S2  SGN C   3      23.223  81.305  11.621  1.00 54.80     0.251 S 
HETATM   42  O4S SGN C   3      21.864  80.749  11.753  1.00 54.99    -0.572 OA
HETATM   43  O5S SGN C   3      23.345  82.635  12.289  1.00 53.99    -0.572 OA
HETATM   44  O6S SGN C   3      24.238  80.367  12.082  1.00 55.43    -0.572 OA
ENDBRANCH  40  41
ENDBRANCH  39  40
ENDBRANCH  12  39
ENDBRANCH   7   8
ENDBRANCH   4   7
BRANCH   3  45
HETATM   45  O3  IDS C   2      23.178  79.775   5.591  1.00 39.65    -0.390 OA
ATOM     46  H3  IDS C   2      23.498  79.145   4.957  1.00  0.00     0.210 HD
ENDBRANCH   3  45
BRANCH   5  47
HETATM   47  C6  IDS C   2      19.665  82.790   3.810  1.00 36.10     0.206 C 
HETATM   48  O6A IDS C   2      18.455  82.875   4.116  1.00 32.44    -0.646 OA
HETATM   49  O6B IDS C   2      20.351  83.752   3.390  1.00 33.44    -0.646 OA
ENDBRANCH   5  47
BRANCH   2  50
HETATM   50  O2  IDS C   2      21.589  77.620   4.809  1.00 43.59    -0.244 OA
BRANCH  50  51
HETATM   51  S   IDS C   2      22.772  76.819   4.097  1.00 44.11     0.252 S 
HETATM   52  O1S IDS C   2      23.086  77.550   2.823  1.00 44.48    -0.572 OA
HETATM   53  O2S IDS C   2      22.277  75.449   3.846  1.00 44.29    -0.572 OA
HETATM   54  O3S IDS C   2      23.896  76.825   5.015  1.00 44.74    -0.572 OA
ENDBRANCH  50  51
ENDBRANCH   2  50
BRANCH   1  55
HETATM   55  O4  SGN C   1      19.408  78.693   2.901  1.00 44.73    -0.348 OA
BRANCH  55  56
HETATM   56  C4  SGN C   1      18.244  77.848   2.762  1.00 48.25     0.186 C 
HETATM   57  C3  SGN C   1      17.044  78.688   2.309  1.00 48.43     0.178 C 
HETATM   58  C2  SGN C   1      15.852  77.780   2.010  1.00 48.58     0.181 C 
HETATM   59  C1  SGN C   1      16.222  76.671   1.028  1.00 50.40     0.283 C 
HETATM   60  O5  SGN C   1      17.347  75.932   1.521  1.00 50.82    -0.349 OA
HETATM   61  C5  SGN C   1      18.521  76.753   1.718  1.00 51.58     0.181 C 
BRANCH  57  62
HETATM   62  O3  SGN C   1      16.688  79.610   3.326  1.00 46.09    -0.391 OA
ATOM     63  H3  SGN C   1      17.046  80.465   3.114  1.00  0.00     0.210 HD
ENDBRANCH  57  62
BRANCH  58  64
HETATM   64  N2  SGN C   1      14.749  78.553   1.477  1.00 48.56    -0.289 N 
ATOM     65  H2  SGN C   1      14.809  79.064   0.596  1.00  0.00     0.175 HD
BRANCH  64  66
HETATM   66  S1  SGN C   1      13.384  78.541   2.412  1.00 47.67     0.205 S 
HETATM   67  O1S SGN C   1      13.125  77.128   2.766  1.00 47.59    -0.578 OA
HETATM   68  O2S SGN C   1      12.328  79.110   1.568  1.00 48.55    -0.578 OA
HETATM   69  O3S SGN C   1      13.676  79.376   3.597  1.00 47.08    -0.578 OA
ENDBRANCH  64  66
ENDBRANCH  58  64
BRANCH  59  70
HETATM   70  O1  SGN C   1      16.557  77.220  -0.201  1.00 51.36    -0.369 OA
ATOM     71  H1  SGN C   1      16.274  76.644  -0.900  1.00  0.00     0.212 HD
ENDBRANCH  59  70
BRANCH  61  72
HETATM   72  C6  SGN C   1      19.634  75.823   2.131  1.00 55.48     0.227 C 
BRANCH  72  73
HETATM   73  O6  SGN C   1      19.368  74.497   1.625  1.00 61.59    -0.254 OA
BRANCH  73  74
HETATM   74  S2  SGN C   1      19.091  73.391   2.739  1.00 65.98     0.251 S 
HETATM   75  O4S SGN C   1      17.854  72.606   2.298  1.00 65.09    -0.572 OA
HETATM   76  O5S SGN C   1      18.864  74.104   3.982  1.00 65.58    -0.572 OA
HETATM   77  O6S SGN C   1      20.360  72.485   2.812  1.00 65.84    -0.572 OA
ENDBRANCH  73  74
ENDBRANCH  72  73
ENDBRANCH  61  72
ENDBRANCH  55  56
ENDBRANCH   1  55
TORSDOF 27
ENDMDL
MODEL 95
REMARK VINA RESULT:      -4.8      5.859     12.643
REMARK  27 active torsions:
REMARK  status: ('A' for Active; 'I' for Inactive)
REMARK    1  A    between atoms: C1_1  and  O1_2 
REMARK    2  A    between atoms: S1_5  and  N2_7 
REMARK    3  A    between atoms: C2_6  and  N2_7 
REMARK    4  A    between atoms: S2_10  and  O6_22 
REMARK    5  A    between atoms: C3_11  and  O3_12 
REMARK    6  A    between atoms: C4_15  and  O4_16 
REMARK    7  A    between atoms: O4_16  and  C1_24 
REMARK    8  A    between atoms: C5_18  and  C6_21 
REMARK    9  A    between atoms: C6_21  and  O6_22 
REMARK   10  A    between atoms: C2_26  and  O2_27 
REMARK   11  A    between atoms: O2_27  and  S_40 
REMARK   12  A    between atoms: C3_29  and  O3_30 
REMARK   13  A    between atoms: C4_33  and  O4_34 
REMARK   14  A    between atoms: O4_34  and  C1_41 
REMARK   15  A    between atoms: C5_35  and  C6_37 
REMARK   16  A    between atoms: S1_43  and  N2_45 
REMARK   17  A    between atoms: C2_44  and  N2_45 
REMARK   18  A    between atoms: S2_48  and  O6_60 
REMARK   19  A    between atoms: C3_49  and  O3_50 
REMARK   20  A    between atoms: C4_53  and  O4_54 
REMARK   21  A    between atoms: O4_54  and  C1_62 
REMARK   22  A    between atoms: C5_56  and  C6_59 
REMARK   23  A    between atoms: C6_59  and  O6_60 
REMARK   24  A    between atoms: C2_64  and  O2_65 
REMARK   25  A    between atoms: O2_65  and  S_77 
REMARK   26  A    between atoms: C3_67  and  O3_68 
REMARK   27  A    between atoms: C5_72  and  C6_74 
ROOT
HETATM    1  C1  IDS C   2      26.547  82.526  13.087  1.00 40.81     0.294 C 
HETATM    2  C2  IDS C   2      26.275  81.048  13.377  1.00 40.20     0.231 C 
HETATM    3  C3  IDS C   2      25.006  80.576  12.674  1.00 39.01     0.185 C 
HETATM    4  C4  IDS C   2      23.780  81.383  13.145  1.00 37.65     0.195 C 
HETATM    5  C5  IDS C   2      24.235  82.717  13.750  1.00 35.99     0.257 C 
HETATM    6  O5  IDS C   2      25.314  83.268  12.958  1.00 39.00    -0.340 OA
ENDROOT
BRANCH   4   7
HETATM    7  O4  IDS C   2      22.890  81.623  12.026  1.00 35.98    -0.348 OA
BRANCH   7   8
HETATM    8  C1  SGN C   3      21.708  80.870  12.005  1.00 35.40     0.287 C 
HETATM    9  C2  SGN C   3      21.391  80.421  10.568  1.00 33.71     0.182 C 
HETATM   10  C3  SGN C   3      20.894  81.577   9.692  1.00 35.79     0.178 C 
HETATM   11  C4  SGN C   3      19.817  82.415  10.403  1.00 36.62     0.186 C 
HETATM   12  C5  SGN C   3      20.279  82.776  11.809  1.00 39.32     0.181 C 
HETATM   13  O5  SGN C   3      20.609  81.584  12.544  1.00 37.58    -0.349 OA
BRANCH   9  14
HETATM   14  N2  SGN C   3      22.579  79.858   9.965  1.00 29.28    -0.289 N 
ATOM     15  H2  SGN C   3      23.268  80.451   9.504  1.00  0.00     0.175 HD
BRANCH  14  16
HETATM   16  S1  SGN C   3      22.778  78.221  10.048  1.00 27.84     0.205 S 
HETATM   17  O1S SGN C   3      21.860  77.794  11.088  1.00 27.65    -0.578 OA
HETATM   18  O2S SGN C   3      24.208  78.018  10.422  1.00 27.72    -0.578 OA
HETATM   19  O3S SGN C   3      22.454  77.612   8.719  1.00 28.50    -0.578 OA
ENDBRANCH  14  16
ENDBRANCH   9  14
BRANCH  10  20
HETATM   20  O3  SGN C   3      20.381  81.060   8.467  1.00 34.89    -0.391 OA
ATOM     21  H3  SGN C   3      20.910  81.374   7.744  1.00  0.00     0.210 HD
ENDBRANCH  10  20
BRANCH  11  22
HETATM   22  O4  SGN C   3      19.601  83.632   9.666  1.00 37.13    -0.348 OA
BRANCH  22  23
HETATM   23  C1  UAP C   4      18.307  83.827   9.209  1.00 39.64     0.294 C 
HETATM   24  C2  UAP C   4      18.085  83.053   7.922  1.00 38.70     0.228 C 
HETATM   25  C3  UAP C   4      16.694  83.346   7.369  1.00 38.51     0.156 C 
HETATM   26  C4  UAP C   4      15.550  83.392   8.485  1.00 38.14     0.077 C 
HETATM   27  C5  UAP C   4      16.019  83.381   9.806  1.00 38.51     0.228 C 
HETATM   28  O5  UAP C   4      17.418  83.338  10.205  1.00 37.46    -0.343 OA
BRANCH  24  29
HETATM   29  O2  UAP C   4      19.054  83.474   6.909  1.00 40.54    -0.244 OA
BRANCH  29  30
HETATM   30  S   UAP C   4      19.043  84.965   6.325  1.00 40.49     0.252 S 
HETATM   31  O1S UAP C   4      18.138  85.751   7.177  1.00 40.89    -0.572 OA
HETATM   32  O2S UAP C   4      18.548  84.876   4.944  1.00 37.88    -0.572 OA
HETATM   33  O3S UAP C   4      20.427  85.463   6.386  1.00 37.47    -0.572 OA
ENDBRANCH  29  30
ENDBRANCH  24  29
BRANCH  25  34
HETATM   34  O3  UAP C   4      16.365  82.362   6.401  1.00 38.58    -0.393 OA
ATOM     35  H3  UAP C   4      17.162  81.929   6.118  1.00  0.00     0.210 HD
ENDBRANCH  25  34
BRANCH  27  36
HETATM   36  C6  UAP C   4      15.102  83.379  10.980  1.00 37.96     0.203 C 
HETATM   37  O6A UAP C   4      13.897  83.126  10.786  1.00 40.05    -0.646 OA
HETATM   38  O6B UAP C   4      15.582  83.633  12.106  1.00 36.71    -0.646 OA
ENDBRANCH  27  36
ENDBRANCH  22  23
ENDBRANCH  11  22
BRANCH  12  39
HETATM   39  C6  SGN C   3      19.260  83.527  12.620  1.00 42.65     0.227 C 
BRANCH  39  40
HETATM   40  O6  SGN C   3      19.946  84.690  13.131  1.00 51.09    -0.254 OA
BRANCH  40  41
HETATM   41  S2  SGN C   3      19.578  86.085  12.448  1.00 54.80     0.251 S 
HETATM   42  O4S SGN C   3      19.817  87.143  13.447  1.00 54.99    -0.572 OA
HETATM   43  O5S SGN C   3      18.138  86.004  12.061  1.00 53.99    -0.572 OA
HETATM   44  O6S SGN C   3      20.448  86.231  11.289  1.00 55.43    -0.572 OA
ENDBRANCH  40  41
ENDBRANCH  39  40
ENDBRANCH  12  39
ENDBRANCH   7   8
ENDBRANCH   4   7
BRANCH   3  45
HETATM   45  O3  IDS C   2      24.805  79.194  12.938  1.00 39.65    -0.390 OA
ATOM     46  H3  IDS C   2      24.395  78.784  12.185  1.00  0.00     0.210 HD
ENDBRANCH   3  45
BRANCH   5  47
HETATM   47  C6  IDS C   2      23.148  83.777  13.860  1.00 36.10     0.206 C 
HETATM   48  O6A IDS C   2      22.302  83.648  14.773  1.00 32.44    -0.646 OA
HETATM   49  O6B IDS C   2      23.162  84.731  13.046  1.00 33.44    -0.646 OA
ENDBRANCH   5  47
BRANCH   2  50
HETATM   50  O2  IDS C   2      27.390  80.241  12.898  1.00 43.59    -0.244 OA
BRANCH  50  51
HETATM   51  S   IDS C   2      28.124  79.238  13.899  1.00 44.11     0.252 S 
HETATM   52  O1S IDS C   2      28.518  80.040  15.107  1.00 44.48    -0.572 OA
HETATM   53  O2S IDS C   2      29.298  78.694  13.184  1.00 44.29    -0.572 OA
HETATM   54  O3S IDS C   2      27.167  78.197  14.230  1.00 44.74    -0.572 OA
ENDBRANCH  50  51
ENDBRANCH   2  50
BRANCH   1  55
HETATM   55  O4  SGN C   1      27.285  83.074  14.126  1.00 44.73    -0.348 OA
BRANCH  55  56
HETATM   56  C4  SGN C   1      28.155  84.185  13.817  1.00 48.25     0.186 C 
HETATM   57  C3  SGN C   1      27.424  85.507  14.083  1.00 48.43     0.178 C 
HETATM   58  C2  SGN C   1      28.384  86.682  13.909  1.00 48.58     0.181 C 
HETATM   59  C1  SGN C   1      29.646  86.506  14.751  1.00 50.40     0.283 C 
HETATM   60  O5  SGN C   1      30.272  85.254  14.445  1.00 50.82    -0.349 OA
HETATM   61  C5  SGN C   1      29.415  84.117  14.698  1.00 51.58     0.181 C 
BRANCH  57  62
HETATM   62  O3  SGN C   1      26.339  85.649  13.180  1.00 46.09    -0.391 OA
ATOM     63  H3  SGN C   1      26.097  86.566  13.123  1.00  0.00     0.210 HD
ENDBRANCH  57  62
BRANCH  58  64
HETATM   64  N2  SGN C   1      27.732  87.926  14.264  1.00 48.56    -0.289 N 
ATOM     65  H2  SGN C   1      27.381  88.115  15.203  1.00  0.00     0.175 HD
BRANCH  64  66
HETATM   66  S1  SGN C   1      27.602  89.013  13.025  1.00 47.67     0.205 S 
HETATM   67  O1S SGN C   1      26.441  89.876  13.335  1.00 47.59    -0.578 OA
HETATM   68  O2S SGN C   1      27.394  88.207  11.818  1.00 48.55    -0.578 OA
HETATM   69  O3S SGN C   1      28.873  89.769  12.990  1.00 47.08    -0.578 OA
ENDBRANCH  64  66
ENDBRANCH  58  64
BRANCH  59  70
HETATM   70  O1  SGN C   1      29.320  86.521  16.099  1.00 51.36    -0.369 OA
ATOM     71  H1  SGN C   1      29.881  85.920  16.574  1.00  0.00     0.212 HD
ENDBRANCH  59  70
BRANCH  61  72
HETATM   72  C6  SGN C   1      30.243  82.885  14.433  1.00 55.48     0.227 C 
BRANCH  72  73
HETATM   73  O6  SGN C   1      30.367  82.683  13.008  1.00 61.59    -0.254 OA
BRANCH  73  74
HETATM   74  S2  SGN C   1      31.608  81.791  12.556  1.00 65.98     0.251 S 
HETATM   75  O4S SGN C   1      31.845  80.756  13.659  1.00 65.09    -0.572 OA
HETATM   76  O5S SGN C   1      32.735  82.693  12.411  1.00 65.58    -0.572 OA
HETATM   77  O6S SGN C   1      31.222  81.119  11.201  1.00 65.84    -0.572 OA
ENDBRANCH  73  74
ENDBRANCH  72  73
ENDBRANCH  61  72
ENDBRANCH  55  56
ENDBRANCH   1  55
TORSDOF 27
ENDMDL
MODEL 96
REMARK VINA RESULT:      -4.8      8.413     13.518
REMARK  27 active torsions:
REMARK  status: ('A' for Active; 'I' for Inactive)
REMARK    1  A    between atoms: C1_1  and  O1_2 
REMARK    2  A    between atoms: S1_5  and  N2_7 
REMARK    3  A    between atoms: C2_6  and  N2_7 
REMARK    4  A    between atoms: S2_10  and  O6_22 
REMARK    5  A    between atoms: C3_11  and  O3_12 
REMARK    6  A    between atoms: C4_15  and  O4_16 
REMARK    7  A    between atoms: O4_16  and  C1_24 
REMARK    8  A    between atoms: C5_18  and  C6_21 
REMARK    9  A    between atoms: C6_21  and  O6_22 
REMARK   10  A    between atoms: C2_26  and  O2_27 
REMARK   11  A    between atoms: O2_27  and  S_40 
REMARK   12  A    between atoms: C3_29  and  O3_30 
REMARK   13  A    between atoms: C4_33  and  O4_34 
REMARK   14  A    between atoms: O4_34  and  C1_41 
REMARK   15  A    between atoms: C5_35  and  C6_37 
REMARK   16  A    between atoms: S1_43  and  N2_45 
REMARK   17  A    between atoms: C2_44  and  N2_45 
REMARK   18  A    between atoms: S2_48  and  O6_60 
REMARK   19  A    between atoms: C3_49  and  O3_50 
REMARK   20  A    between atoms: C4_53  and  O4_54 
REMARK   21  A    between atoms: O4_54  and  C1_62 
REMARK   22  A    between atoms: C5_56  and  C6_59 
REMARK   23  A    between atoms: C6_59  and  O6_60 
REMARK   24  A    between atoms: C2_64  and  O2_65 
REMARK   25  A    between atoms: O2_65  and  S_77 
REMARK   26  A    between atoms: C3_67  and  O3_68 
REMARK   27  A    between atoms: C5_72  and  C6_74 
ROOT
HETATM    1  C1  IDS C   2      36.334  72.551  18.854  1.00 40.81     0.294 C 
HETATM    2  C2  IDS C   2      36.709  71.371  17.955  1.00 40.20     0.231 C 
HETATM    3  C3  IDS C   2      36.972  70.114  18.780  1.00 39.01     0.185 C 
HETATM    4  C4  IDS C   2      38.129  70.337  19.775  1.00 37.65     0.195 C 
HETATM    5  C5  IDS C   2      38.323  71.839  20.020  1.00 35.99     0.257 C 
HETATM    6  O5  IDS C   2      37.032  72.487  20.118  1.00 39.00    -0.340 OA
ENDROOT
BRANCH   4   7
HETATM    7  O4  IDS C   2      37.838  69.663  21.025  1.00 35.98    -0.348 OA
BRANCH   7   8
HETATM    8  C1  SGN C   3      36.525  69.197  21.184  1.00 35.40     0.287 C 
HETATM    9  C2  SGN C   3      36.176  69.098  22.680  1.00 33.71     0.182 C 
HETATM   10  C3  SGN C   3      36.879  67.921  23.365  1.00 35.79     0.178 C 
HETATM   11  C4  SGN C   3      36.761  66.625  22.545  1.00 36.62     0.186 C 
HETATM   12  C5  SGN C   3      37.137  66.889  21.092  1.00 39.32     0.181 C 
HETATM   13  O5  SGN C   3      36.321  67.945  20.554  1.00 37.58    -0.349 OA
BRANCH   9  14
HETATM   14  N2  SGN C   3      36.561  70.322  23.348  1.00 29.28    -0.289 N 
ATOM     15  H2  SGN C   3      37.530  70.639  23.351  1.00  0.00     0.175 HD
BRANCH  14  16
HETATM   16  S1  SGN C   3      35.375  71.187  24.104  1.00 27.84     0.205 S 
HETATM   17  O1S SGN C   3      34.358  71.379  23.087  1.00 27.65    -0.578 OA
HETATM   18  O2S SGN C   3      36.025  72.466  24.518  1.00 27.72    -0.578 OA
HETATM   19  O3S SGN C   3      34.866  70.412  25.280  1.00 28.50    -0.578 OA
ENDBRANCH  14  16
ENDBRANCH   9  14
BRANCH  10  20
HETATM   20  O3  SGN C   3      36.326  67.729  24.665  1.00 34.89    -0.391 OA
ATOM     21  H3  SGN C   3      35.460  67.346  24.587  1.00  0.00     0.210 HD
ENDBRANCH  10  20
BRANCH  11  22
HETATM   22  O4  SGN C   3      37.666  65.643  23.080  1.00 37.13    -0.348 OA
BRANCH  22  23
HETATM   23  C1  UAP C   4      37.164  64.879  24.122  1.00 39.64     0.294 C 
HETATM   24  C2  UAP C   4      36.021  64.010  23.629  1.00 38.70     0.228 C 
HETATM   25  C3  UAP C   4      35.406  63.242  24.796  1.00 38.51     0.156 C 
HETATM   26  C4  UAP C   4      36.482  62.648  25.818  1.00 38.14     0.077 C 
HETATM   27  C5  UAP C   4      37.793  63.103  25.620  1.00 38.51     0.228 C 
HETATM   28  O5  UAP C   4      38.214  64.043  24.591  1.00 37.46    -0.343 OA
BRANCH  24  29
HETATM   29  O2  UAP C   4      34.966  64.846  23.054  1.00 40.54    -0.244 OA
BRANCH  29  30
HETATM   30  S   UAP C   4      33.987  64.277  21.922  1.00 40.49     0.252 S 
HETATM   31  O1S UAP C   4      34.736  63.248  21.186  1.00 40.89    -0.572 OA
HETATM   32  O2S UAP C   4      33.631  65.412  21.058  1.00 37.88    -0.572 OA
HETATM   33  O3S UAP C   4      32.813  63.716  22.609  1.00 37.47    -0.572 OA
ENDBRANCH  29  30
ENDBRANCH  24  29
BRANCH  25  34
HETATM   34  O3  UAP C   4      34.611  62.184  24.284  1.00 38.58    -0.393 OA
ATOM     35  H3  UAP C   4      34.469  61.544  24.972  1.00  0.00     0.210 HD
ENDBRANCH  25  34
BRANCH  27  36
HETATM   36  C6  UAP C   4      38.938  62.630  26.447  1.00 37.96     0.203 C 
HETATM   37  O6A UAP C   4      38.853  62.738  27.687  1.00 40.05    -0.646 OA
HETATM   38  O6B UAP C   4      39.932  62.149  25.862  1.00 36.71    -0.646 OA
ENDBRANCH  27  36
ENDBRANCH  22  23
ENDBRANCH  11  22
BRANCH  12  39
HETATM   39  C6  SGN C   3      36.973  65.700  20.186  1.00 42.65     0.227 C 
BRANCH  39  40
HETATM   40  O6  SGN C   3      37.275  66.177  18.857  1.00 51.09    -0.254 OA
BRANCH  40  41
HETATM   41  S2  SGN C   3      36.364  65.609  17.677  1.00 54.80     0.251 S 
HETATM   42  O4S SGN C   3      36.540  66.499  16.515  1.00 54.99    -0.572 OA
HETATM   43  O5S SGN C   3      34.957  65.625  18.179  1.00 53.99    -0.572 OA
HETATM   44  O6S SGN C   3      36.829  64.257  17.397  1.00 55.43    -0.572 OA
ENDBRANCH  40  41
ENDBRANCH  39  40
ENDBRANCH  12  39
ENDBRANCH   7   8
ENDBRANCH   4   7
BRANCH   3  45
HETATM   45  O3  IDS C   2      37.283  69.033  17.912  1.00 39.65    -0.390 OA
ATOM     46  H3  IDS C   2      38.004  69.280  17.344  1.00  0.00     0.210 HD
ENDBRANCH   3  45
BRANCH   5  47
HETATM   47  C6  IDS C   2      39.117  72.189  21.271  1.00 36.10     0.206 C 
HETATM   48  O6A IDS C   2      38.485  72.641  22.251  1.00 32.44    -0.646 OA
HETATM   49  O6B IDS C   2      40.356  71.994  21.264  1.00 33.44    -0.646 OA
ENDBRANCH   5  47
BRANCH   2  50
HETATM   50  O2  IDS C   2      35.618  71.090  17.031  1.00 43.59    -0.244 OA
BRANCH  50  51
HETATM   51  S   IDS C   2      34.219  70.570  17.598  1.00 44.11     0.252 S 
HETATM   52  O1S IDS C   2      34.214  69.076  17.438  1.00 44.48    -0.572 OA
HETATM   53  O2S IDS C   2      33.159  71.220  16.799  1.00 44.29    -0.572 OA
HETATM   54  O3S IDS C   2      34.158  70.963  18.994  1.00 44.74    -0.572 OA
ENDBRANCH  50  51
ENDBRANCH   2  50
BRANCH   1  55
HETATM   55  O4  SGN C   1      36.670  73.740  18.223  1.00 44.73    -0.348 OA
BRANCH  55  56
HETATM   56  C4  SGN C   1      36.493  74.966  18.965  1.00 48.25     0.186 C 
HETATM   57  C3  SGN C   1      37.466  76.032  18.446  1.00 48.43     0.178 C 
HETATM   58  C2  SGN C   1      37.180  77.375  19.116  1.00 48.58     0.181 C 
HETATM   59  C1  SGN C   1      35.711  77.772  18.975  1.00 50.40     0.283 C 
HETATM   60  O5  SGN C   1      34.868  76.730  19.482  1.00 50.82    -0.349 OA
HETATM   61  C5  SGN C   1      35.050  75.470  18.794  1.00 51.58     0.181 C 
BRANCH  57  62
HETATM   62  O3  SGN C   1      38.802  75.644  18.724  1.00 46.09    -0.391 OA
ATOM     63  H3  SGN C   1      39.399  76.268  18.327  1.00  0.00     0.210 HD
ENDBRANCH  57  62
BRANCH  58  64
HETATM   64  N2  SGN C   1      38.020  78.411  18.553  1.00 48.56    -0.289 N 
ATOM     65  H2  SGN C   1      37.969  78.690  17.573  1.00  0.00     0.175 HD
BRANCH  64  66
HETATM   66  S1  SGN C   1      39.069  79.106  19.626  1.00 47.67     0.205 S 
HETATM   67  O1S SGN C   1      38.255  79.596  20.760  1.00 47.59    -0.578 OA
HETATM   68  O2S SGN C   1      39.717  80.195  18.889  1.00 48.55    -0.578 OA
HETATM   69  O3S SGN C   1      40.022  78.049  20.031  1.00 47.08    -0.578 OA
ENDBRANCH  64  66
ENDBRANCH  58  64
BRANCH  59  70
HETATM   70  O1  SGN C   1      35.405  77.979  17.638  1.00 51.36    -0.369 OA
ATOM     71  H1  SGN C   1      36.067  77.576  17.089  1.00  0.00     0.212 HD
ENDBRANCH  59  70
BRANCH  61  72
HETATM   72  C6  SGN C   1      34.029  74.517  19.363  1.00 55.48     0.227 C 
BRANCH  72  73
HETATM   73  O6  SGN C   1      32.872  74.476  18.500  1.00 61.59    -0.254 OA
BRANCH  73  74
HETATM   74  S2  SGN C   1      31.494  74.864  19.199  1.00 65.98     0.251 S 
HETATM   75  O4S SGN C   1      31.708  76.202  19.910  1.00 65.09    -0.572 OA
HETATM   76  O5S SGN C   1      31.190  73.797  20.135  1.00 65.58    -0.572 OA
HETATM   77  O6S SGN C   1      30.420  74.970  18.070  1.00 65.84    -0.572 OA
ENDBRANCH  73  74
ENDBRANCH  72  73
ENDBRANCH  61  72
ENDBRANCH  55  56
ENDBRANCH   1  55
TORSDOF 27
ENDMDL
MODEL 97
REMARK VINA RESULT:      -4.8     10.205     13.225
REMARK  27 active torsions:
REMARK  status: ('A' for Active; 'I' for Inactive)
REMARK    1  A    between atoms: C1_1  and  O1_2 
REMARK    2  A    between atoms: S1_5  and  N2_7 
REMARK    3  A    between atoms: C2_6  and  N2_7 
REMARK    4  A    between atoms: S2_10  and  O6_22 
REMARK    5  A    between atoms: C3_11  and  O3_12 
REMARK    6  A    between atoms: C4_15  and  O4_16 
REMARK    7  A    between atoms: O4_16  and  C1_24 
REMARK    8  A    between atoms: C5_18  and  C6_21 
REMARK    9  A    between atoms: C6_21  and  O6_22 
REMARK   10  A    between atoms: C2_26  and  O2_27 
REMARK   11  A    between atoms: O2_27  and  S_40 
REMARK   12  A    between atoms: C3_29  and  O3_30 
REMARK   13  A    between atoms: C4_33  and  O4_34 
REMARK   14  A    between atoms: O4_34  and  C1_41 
REMARK   15  A    between atoms: C5_35  and  C6_37 
REMARK   16  A    between atoms: S1_43  and  N2_45 
REMARK   17  A    between atoms: C2_44  and  N2_45 
REMARK   18  A    between atoms: S2_48  and  O6_60 
REMARK   19  A    between atoms: C3_49  and  O3_50 
REMARK   20  A    between atoms: C4_53  and  O4_54 
REMARK   21  A    between atoms: O4_54  and  C1_62 
REMARK   22  A    between atoms: C5_56  and  C6_59 
REMARK   23  A    between atoms: C6_59  and  O6_60 
REMARK   24  A    between atoms: C2_64  and  O2_65 
REMARK   25  A    between atoms: O2_65  and  S_77 
REMARK   26  A    between atoms: C3_67  and  O3_68 
REMARK   27  A    between atoms: C5_72  and  C6_74 
ROOT
HETATM    1  C1  IDS C   2      40.730  76.355  20.125  1.00 40.81     0.294 C 
HETATM    2  C2  IDS C   2      39.436  76.577  19.338  1.00 40.20     0.231 C 
HETATM    3  C3  IDS C   2      38.548  75.337  19.381  1.00 39.01     0.185 C 
HETATM    4  C4  IDS C   2      39.269  74.119  18.769  1.00 37.65     0.195 C 
HETATM    5  C5  IDS C   2      40.786  74.352  18.781  1.00 35.99     0.257 C 
HETATM    6  O5  IDS C   2      41.172  74.983  20.025  1.00 39.00    -0.340 OA
ENDROOT
BRANCH   4   7
HETATM    7  O4  IDS C   2      38.944  72.925  19.524  1.00 35.98    -0.348 OA
BRANCH   7   8
HETATM    8  C1  SGN C   3      38.356  73.131  20.781  1.00 35.40     0.287 C 
HETATM    9  C2  SGN C   3      38.807  72.035  21.762  1.00 33.71     0.182 C 
HETATM   10  C3  SGN C   3      38.151  70.682  21.466  1.00 35.79     0.178 C 
HETATM   11  C4  SGN C   3      36.636  70.816  21.235  1.00 36.62     0.186 C 
HETATM   12  C5  SGN C   3      36.355  71.939  20.245  1.00 39.32     0.181 C 
HETATM   13  O5  SGN C   3      36.942  73.167  20.711  1.00 37.58    -0.349 OA
BRANCH   9  14
HETATM   14  N2  SGN C   3      40.244  71.882  21.688  1.00 29.28    -0.289 N 
ATOM     15  H2  SGN C   3      40.704  71.634  20.813  1.00  0.00     0.175 HD
BRANCH  14  16
HETATM   16  S1  SGN C   3      41.112  72.122  23.073  1.00 27.84     0.205 S 
HETATM   17  O1S SGN C   3      41.996  73.230  22.761  1.00 27.65    -0.578 OA
HETATM   18  O2S SGN C   3      41.848  70.844  23.301  1.00 27.72    -0.578 OA
HETATM   19  O3S SGN C   3      40.177  72.439  24.198  1.00 28.50    -0.578 OA
ENDBRANCH  14  16
ENDBRANCH   9  14
BRANCH  10  20
HETATM   20  O3  SGN C   3      38.404  69.785  22.545  1.00 34.89    -0.391 OA
ATOM     21  H3  SGN C   3      39.199  70.047  22.995  1.00  0.00     0.210 HD
ENDBRANCH  10  20
BRANCH  11  22
HETATM   22  O4  SGN C   3      36.131  69.586  20.686  1.00 37.13    -0.348 OA
BRANCH  22  23
HETATM   23  C1  UAP C   4      35.366  68.820  21.552  1.00 39.64     0.294 C 
HETATM   24  C2  UAP C   4      34.309  68.055  20.777  1.00 38.70     0.228 C 
HETATM   25  C3  UAP C   4      33.405  67.288  21.739  1.00 38.51     0.156 C 
HETATM   26  C4  UAP C   4      34.191  66.580  22.938  1.00 38.14     0.077 C 
HETATM   27  C5  UAP C   4      35.539  66.947  23.054  1.00 38.51     0.228 C 
HETATM   28  O5  UAP C   4      36.233  67.894  22.193  1.00 37.46    -0.343 OA
BRANCH  24  29
HETATM   29  O2  UAP C   4      33.459  68.985  20.031  1.00 40.54    -0.244 OA
BRANCH  29  30
HETATM   30  S   UAP C   4      33.213  68.799  18.460  1.00 40.49     0.252 S 
HETATM   31  O1S UAP C   4      33.101  67.354  18.212  1.00 40.89    -0.572 OA
HETATM   32  O2S UAP C   4      34.378  69.378  17.776  1.00 37.88    -0.572 OA
HETATM   33  O3S UAP C   4      31.968  69.512  18.131  1.00 37.47    -0.572 OA
ENDBRANCH  29  30
ENDBRANCH  24  29
BRANCH  25  34
HETATM   34  O3  UAP C   4      32.679  66.310  21.012  1.00 38.58    -0.393 OA
ATOM     35  H3  UAP C   4      31.827  66.663  20.785  1.00  0.00     0.210 HD
ENDBRANCH  25  34
BRANCH  27  36
HETATM   36  C6  UAP C   4      36.442  66.363  24.085  1.00 37.96     0.203 C 
HETATM   37  O6A UAP C   4      36.289  65.163  24.389  1.00 40.05    -0.646 OA
HETATM   38  O6B UAP C   4      37.309  67.101  24.598  1.00 36.71    -0.646 OA
ENDBRANCH  27  36
ENDBRANCH  22  23
ENDBRANCH  11  22
BRANCH  12  39
HETATM   39  C6  SGN C   3      34.894  72.207  20.014  1.00 42.65     0.227 C 
BRANCH  39  40
HETATM   40  O6  SGN C   3      34.549  73.286  20.910  1.00 51.09    -0.254 OA
BRANCH  40  41
HETATM   41  S2  SGN C   3      33.460  74.326  20.379  1.00 54.80     0.251 S 
HETATM   42  O4S SGN C   3      32.168  73.618  20.317  1.00 54.99    -0.572 OA
HETATM   43  O5S SGN C   3      33.915  74.768  19.028  1.00 53.99    -0.572 OA
HETATM   44  O6S SGN C   3      33.427  75.427  21.333  1.00 55.43    -0.572 OA
ENDBRANCH  40  41
ENDBRANCH  39  40
ENDBRANCH  12  39
ENDBRANCH   7   8
ENDBRANCH   4   7
BRANCH   3  45
HETATM   45  O3  IDS C   2      37.344  75.591  18.671  1.00 39.65    -0.390 OA
ATOM     46  H3  IDS C   2      36.603  75.296  19.187  1.00  0.00     0.210 HD
ENDBRANCH   3  45
BRANCH   5  47
HETATM   47  C6  IDS C   2      41.630  73.096  18.613  1.00 36.10     0.206 C 
HETATM   48  O6A IDS C   2      41.589  72.513  17.507  1.00 32.44    -0.646 OA
HETATM   49  O6B IDS C   2      42.334  72.718  19.580  1.00 33.44    -0.646 OA
ENDBRANCH   5  47
BRANCH   2  50
HETATM   50  O2  IDS C   2      38.694  77.690  19.918  1.00 43.59    -0.244 OA
BRANCH  50  51
HETATM   51  S   IDS C   2      38.021  78.774  18.959  1.00 44.11     0.252 S 
HETATM   52  O1S IDS C   2      36.536  78.676  19.169  1.00 44.48    -0.572 OA
HETATM   53  O2S IDS C   2      38.412  78.431  17.576  1.00 44.29    -0.572 OA
HETATM   54  O3S IDS C   2      38.538  80.070  19.360  1.00 44.74    -0.572 OA
ENDBRANCH  50  51
ENDBRANCH   2  50
BRANCH   1  55
HETATM   55  O4  SGN C   1      41.727  77.178  19.619  1.00 44.73    -0.348 OA
BRANCH  55  56
HETATM   56  C4  SGN C   1      41.647  78.589  19.918  1.00 48.25     0.186 C 
HETATM   57  C3  SGN C   1      41.740  78.803  21.434  1.00 48.43     0.178 C 
HETATM   58  C2  SGN C   1      41.813  80.297  21.749  1.00 48.58     0.181 C 
HETATM   59  C1  SGN C   1      42.933  80.981  20.968  1.00 50.40     0.283 C 
HETATM   60  O5  SGN C   1      42.776  80.737  19.565  1.00 50.82    -0.349 OA
HETATM   61  C5  SGN C   1      42.804  79.331  19.229  1.00 51.58     0.181 C 
BRANCH  57  62
HETATM   62  O3  SGN C   1      40.603  78.245  22.072  1.00 46.09    -0.391 OA
ATOM     63  H3  SGN C   1      40.837  77.407  22.455  1.00  0.00     0.210 HD
ENDBRANCH  57  62
BRANCH  58  64
HETATM   64  N2  SGN C   1      42.012  80.505  23.168  1.00 48.56    -0.289 N 
ATOM     65  H2  SGN C   1      42.850  80.193  23.659  1.00  0.00     0.175 HD
BRANCH  64  66
HETATM   66  S1  SGN C   1      40.770  81.290  23.929  1.00 47.67     0.205 S 
HETATM   67  O1S SGN C   1      40.921  82.728  23.616  1.00 47.59    -0.578 OA
HETATM   68  O2S SGN C   1      40.945  81.006  25.357  1.00 48.55    -0.578 OA
HETATM   69  O3S SGN C   1      39.516  80.723  23.387  1.00 47.08    -0.578 OA
ENDBRANCH  64  66
ENDBRANCH  58  64
BRANCH  59  70
HETATM   70  O1  SGN C   1      44.163  80.481  21.370  1.00 51.36    -0.369 OA
ATOM     71  H1  SGN C   1      44.799  81.185  21.414  1.00  0.00     0.212 HD
ENDBRANCH  59  70
BRANCH  61  72
HETATM   72  C6  SGN C   1      42.736  79.245  17.725  1.00 55.48     0.227 C 
BRANCH  72  73
HETATM   73  O6  SGN C   1      43.072  80.527  17.152  1.00 61.59    -0.254 OA
BRANCH  73  74
HETATM   74  S2  SGN C   1      41.974  81.139  16.172  1.00 65.98     0.251 S 
HETATM   75  O4S SGN C   1      40.604  80.730  16.718  1.00 65.09    -0.572 OA
HETATM   76  O5S SGN C   1      42.225  80.569  14.861  1.00 65.58    -0.572 OA
HETATM   77  O6S SGN C   1      42.164  82.688  16.178  1.00 65.84    -0.572 OA
ENDBRANCH  73  74
ENDBRANCH  72  73
ENDBRANCH  61  72
ENDBRANCH  55  56
ENDBRANCH   1  55
TORSDOF 27
ENDMDL
MODEL 98
REMARK VINA RESULT:      -4.8      8.136     15.306
REMARK  27 active torsions:
REMARK  status: ('A' for Active; 'I' for Inactive)
REMARK    1  A    between atoms: C1_1  and  O1_2 
REMARK    2  A    between atoms: S1_5  and  N2_7 
REMARK    3  A    between atoms: C2_6  and  N2_7 
REMARK    4  A    between atoms: S2_10  and  O6_22 
REMARK    5  A    between atoms: C3_11  and  O3_12 
REMARK    6  A    between atoms: C4_15  and  O4_16 
REMARK    7  A    between atoms: O4_16  and  C1_24 
REMARK    8  A    between atoms: C5_18  and  C6_21 
REMARK    9  A    between atoms: C6_21  and  O6_22 
REMARK   10  A    between atoms: C2_26  and  O2_27 
REMARK   11  A    between atoms: O2_27  and  S_40 
REMARK   12  A    between atoms: C3_29  and  O3_30 
REMARK   13  A    between atoms: C4_33  and  O4_34 
REMARK   14  A    between atoms: O4_34  and  C1_41 
REMARK   15  A    between atoms: C5_35  and  C6_37 
REMARK   16  A    between atoms: S1_43  and  N2_45 
REMARK   17  A    between atoms: C2_44  and  N2_45 
REMARK   18  A    between atoms: S2_48  and  O6_60 
REMARK   19  A    between atoms: C3_49  and  O3_50 
REMARK   20  A    between atoms: C4_53  and  O4_54 
REMARK   21  A    between atoms: O4_54  and  C1_62 
REMARK   22  A    between atoms: C5_56  and  C6_59 
REMARK   23  A    between atoms: C6_59  and  O6_60 
REMARK   24  A    between atoms: C2_64  and  O2_65 
REMARK   25  A    between atoms: O2_65  and  S_77 
REMARK   26  A    between atoms: C3_67  and  O3_68 
REMARK   27  A    between atoms: C5_72  and  C6_74 
ROOT
HETATM    1  C1  IDS C   2      23.275  80.834  11.111  1.00 40.81     0.294 C 
HETATM    2  C2  IDS C   2      22.707  81.970  11.966  1.00 40.20     0.231 C 
HETATM    3  C3  IDS C   2      21.389  82.482  11.392  1.00 39.01     0.185 C 
HETATM    4  C4  IDS C   2      21.581  83.019   9.959  1.00 37.65     0.195 C 
HETATM    5  C5  IDS C   2      22.857  82.427   9.347  1.00 35.99     0.257 C 
HETATM    6  O5  IDS C   2      22.970  81.031   9.712  1.00 39.00    -0.340 OA
ENDROOT
BRANCH   4   7
HETATM    7  O4  IDS C   2      20.433  82.671   9.146  1.00 35.98    -0.348 OA
BRANCH   7   8
HETATM    8  C1  SGN C   3      19.482  81.834   9.748  1.00 35.40     0.287 C 
HETATM    9  C2  SGN C   3      19.007  80.766   8.747  1.00 33.71     0.182 C 
HETATM   10  C3  SGN C   3      18.090  81.347   7.665  1.00 35.79     0.178 C 
HETATM   11  C4  SGN C   3      17.004  82.260   8.262  1.00 36.62     0.186 C 
HETATM   12  C5  SGN C   3      17.631  83.255   9.230  1.00 39.32     0.181 C 
HETATM   13  O5  SGN C   3      18.371  82.558  10.248  1.00 37.58    -0.349 OA
BRANCH   9  14
HETATM   14  N2  SGN C   3      20.154  80.160   8.107  1.00 29.28    -0.289 N 
ATOM     15  H2  SGN C   3      20.756  80.698   7.483  1.00  0.00     0.175 HD
BRANCH  14  16
HETATM   16  S1  SGN C   3      20.455  78.567   8.423  1.00 27.84     0.205 S 
HETATM   17  O1S SGN C   3      21.748  78.313   7.815  1.00 27.65    -0.578 OA
HETATM   18  O2S SGN C   3      19.348  77.819   7.758  1.00 27.72    -0.578 OA
HETATM   19  O3S SGN C   3      20.469  78.347   9.904  1.00 28.50    -0.578 OA
ENDBRANCH  14  16
ENDBRANCH   9  14
BRANCH  10  20
HETATM   20  O3  SGN C   3      17.486  80.284   6.932  1.00 34.89    -0.391 OA
ATOM     21  H3  SGN C   3      18.142  79.860   6.392  1.00  0.00     0.210 HD
ENDBRANCH  10  20
BRANCH  11  22
HETATM   22  O4  SGN C   3      16.366  82.993   7.201  1.00 37.13    -0.348 OA
BRANCH  22  23
HETATM   23  C1  UAP C   4      15.143  82.492   6.786  1.00 39.64     0.294 C 
HETATM   24  C2  UAP C   4      14.165  83.629   6.553  1.00 38.70     0.228 C 
HETATM   25  C3  UAP C   4      12.791  83.073   6.191  1.00 38.51     0.156 C 
HETATM   26  C4  UAP C   4      12.839  81.837   5.178  1.00 38.14     0.077 C 
HETATM   27  C5  UAP C   4      14.120  81.312   4.954  1.00 38.51     0.228 C 
HETATM   28  O5  UAP C   4      15.350  81.799   5.562  1.00 37.46    -0.343 OA
BRANCH  24  29
HETATM   29  O2  UAP C   4      14.007  84.416   7.777  1.00 40.54    -0.244 OA
BRANCH  29  30
HETATM   30  S   UAP C   4      14.184  86.007   7.764  1.00 40.49     0.252 S 
HETATM   31  O1S UAP C   4      15.555  86.281   7.309  1.00 40.89    -0.572 OA
HETATM   32  O2S UAP C   4      13.968  86.469   9.143  1.00 37.88    -0.572 OA
HETATM   33  O3S UAP C   4      13.178  86.547   6.836  1.00 37.47    -0.572 OA
ENDBRANCH  29  30
ENDBRANCH  24  29
BRANCH  25  34
HETATM   34  O3  UAP C   4      12.006  84.111   5.625  1.00 38.58    -0.393 OA
ATOM     35  H3  UAP C   4      11.094  83.965   5.847  1.00  0.00     0.210 HD
ENDBRANCH  25  34
BRANCH  27  36
HETATM   36  C6  UAP C   4      14.370  80.186   4.012  1.00 37.96     0.203 C 
HETATM   37  O6A UAP C   4      15.499  80.095   3.489  1.00 40.05    -0.646 OA
HETATM   38  O6B UAP C   4      13.438  79.385   3.787  1.00 36.71    -0.646 OA
ENDBRANCH  27  36
ENDBRANCH  22  23
ENDBRANCH  11  22
BRANCH  12  39
HETATM   39  C6  SGN C   3      16.640  84.141   9.933  1.00 42.65     0.227 C 
BRANCH  39  40
HETATM   40  O6  SGN C   3      16.604  83.678  11.300  1.00 51.09    -0.254 OA
BRANCH  40  41
HETATM   41  S2  SGN C   3      16.781  84.791  12.430  1.00 54.80     0.251 S 
HETATM   42  O4S SGN C   3      15.450  85.368  12.694  1.00 54.99    -0.572 OA
HETATM   43  O5S SGN C   3      17.727  85.808  11.882  1.00 53.99    -0.572 OA
HETATM   44  O6S SGN C   3      17.321  84.119  13.604  1.00 55.43    -0.572 OA
ENDBRANCH  40  41
ENDBRANCH  39  40
ENDBRANCH  12  39
ENDBRANCH   7   8
ENDBRANCH   4   7
BRANCH   3  45
HETATM   45  O3  IDS C   2      20.875  83.509  12.228  1.00 39.65    -0.390 OA
ATOM     46  H3  IDS C   2      21.021  83.280  13.138  1.00  0.00     0.210 HD
ENDBRANCH   3  45
BRANCH   5  47
HETATM   47  C6  IDS C   2      22.946  82.522   7.830  1.00 36.10     0.206 C 
HETATM   48  O6A IDS C   2      22.803  81.467   7.174  1.00 32.44    -0.646 OA
HETATM   49  O6B IDS C   2      23.143  83.648   7.314  1.00 33.44    -0.646 OA
ENDBRANCH   5  47
BRANCH   2  50
HETATM   50  O2  IDS C   2      22.460  81.489  13.319  1.00 43.59    -0.244 OA
BRANCH  50  51
HETATM   51  S   IDS C   2      22.765  82.442  14.562  1.00 44.11     0.252 S 
HETATM   52  O1S IDS C   2      23.589  83.586  14.041  1.00 44.48    -0.572 OA
HETATM   53  O2S IDS C   2      23.501  81.634  15.557  1.00 44.29    -0.572 OA
HETATM   54  O3S IDS C   2      21.483  82.890  15.075  1.00 44.74    -0.572 OA
ENDBRANCH  50  51
ENDBRANCH   2  50
BRANCH   1  55
HETATM   55  O4  SGN C   1      24.654  80.788  11.260  1.00 44.73    -0.348 OA
BRANCH  55  56
HETATM   56  C4  SGN C   1      25.181  80.729  12.603  1.00 48.25     0.186 C 
HETATM   57  C3  SGN C   1      25.333  79.266  13.037  1.00 48.43     0.178 C 
HETATM   58  C2  SGN C   1      26.034  79.190  14.393  1.00 48.58     0.181 C 
HETATM   59  C1  SGN C   1      27.351  79.963  14.388  1.00 50.40     0.283 C 
HETATM   60  O5  SGN C   1      27.128  81.317  13.976  1.00 50.82    -0.349 OA
HETATM   61  C5  SGN C   1      26.556  81.417  12.651  1.00 51.58     0.181 C 
BRANCH  57  62
HETATM   62  O3  SGN C   1      24.056  78.655  13.134  1.00 46.09    -0.391 OA
ATOM     63  H3  SGN C   1      23.774  78.378  12.270  1.00  0.00     0.210 HD
ENDBRANCH  57  62
BRANCH  58  64
HETATM   64  N2  SGN C   1      26.280  77.810  14.759  1.00 48.56    -0.289 N 
ATOM     65  H2  SGN C   1      26.674  77.130  14.109  1.00  0.00     0.175 HD
BRANCH  64  66
HETATM   66  S1  SGN C   1      25.871  77.428  16.315  1.00 47.67     0.205 S 
HETATM   67  O1S SGN C   1      27.065  77.696  17.147  1.00 47.59    -0.578 OA
HETATM   68  O2S SGN C   1      25.515  76.006  16.287  1.00 48.55    -0.578 OA
HETATM   69  O3S SGN C   1      24.726  78.293  16.677  1.00 47.08    -0.578 OA
ENDBRANCH  64  66
ENDBRANCH  58  64
BRANCH  59  70
HETATM   70  O1  SGN C   1      28.242  79.372  13.504  1.00 51.36    -0.369 OA
ATOM     71  H1  SGN C   1      29.133  79.503  13.806  1.00  0.00     0.212 HD
ENDBRANCH  59  70
BRANCH  61  72
HETATM   72  C6  SGN C   1      26.481  82.888  12.324  1.00 55.48     0.227 C 
BRANCH  72  73
HETATM   73  O6  SGN C   1      27.538  83.590  13.013  1.00 61.59    -0.254 OA
BRANCH  73  74
HETATM   74  S2  SGN C   1      27.083  84.907  13.787  1.00 65.98     0.251 S 
HETATM   75  O4S SGN C   1      28.309  85.817  13.889  1.00 65.09    -0.572 OA
HETATM   76  O5S SGN C   1      26.618  84.479  15.094  1.00 65.58    -0.572 OA
HETATM   77  O6S SGN C   1      25.940  85.561  12.949  1.00 65.84    -0.572 OA
ENDBRANCH  73  74
ENDBRANCH  72  73
ENDBRANCH  61  72
ENDBRANCH  55  56
ENDBRANCH   1  55
TORSDOF 27
ENDMDL
MODEL 99
REMARK VINA RESULT:      -4.7      8.929     12.920
REMARK  27 active torsions:
REMARK  status: ('A' for Active; 'I' for Inactive)
REMARK    1  A    between atoms: C1_1  and  O1_2 
REMARK    2  A    between atoms: S1_5  and  N2_7 
REMARK    3  A    between atoms: C2_6  and  N2_7 
REMARK    4  A    between atoms: S2_10  and  O6_22 
REMARK    5  A    between atoms: C3_11  and  O3_12 
REMARK    6  A    between atoms: C4_15  and  O4_16 
REMARK    7  A    between atoms: O4_16  and  C1_24 
REMARK    8  A    between atoms: C5_18  and  C6_21 
REMARK    9  A    between atoms: C6_21  and  O6_22 
REMARK   10  A    between atoms: C2_26  and  O2_27 
REMARK   11  A    between atoms: O2_27  and  S_40 
REMARK   12  A    between atoms: C3_29  and  O3_30 
REMARK   13  A    between atoms: C4_33  and  O4_34 
REMARK   14  A    between atoms: O4_34  and  C1_41 
REMARK   15  A    between atoms: C5_35  and  C6_37 
REMARK   16  A    between atoms: S1_43  and  N2_45 
REMARK   17  A    between atoms: C2_44  and  N2_45 
REMARK   18  A    between atoms: S2_48  and  O6_60 
REMARK   19  A    between atoms: C3_49  and  O3_50 
REMARK   20  A    between atoms: C4_53  and  O4_54 
REMARK   21  A    between atoms: O4_54  and  C1_62 
REMARK   22  A    between atoms: C5_56  and  C6_59 
REMARK   23  A    between atoms: C6_59  and  O6_60 
REMARK   24  A    between atoms: C2_64  and  O2_65 
REMARK   25  A    between atoms: O2_65  and  S_77 
REMARK   26  A    between atoms: C3_67  and  O3_68 
REMARK   27  A    between atoms: C5_72  and  C6_74 
ROOT
HETATM    1  C1  IDS C   2      20.851  79.452   4.265  1.00 40.81     0.294 C 
HETATM    2  C2  IDS C   2      22.280  79.463   3.716  1.00 40.20     0.231 C 
HETATM    3  C3  IDS C   2      23.294  79.699   4.832  1.00 39.01     0.185 C 
HETATM    4  C4  IDS C   2      23.045  81.052   5.528  1.00 37.65     0.195 C 
HETATM    5  C5  IDS C   2      21.602  81.508   5.279  1.00 35.99     0.257 C 
HETATM    6  O5  IDS C   2      20.709  80.372   5.369  1.00 39.00    -0.340 OA
ENDROOT
BRANCH   4   7
HETATM    7  O4  IDS C   2      23.286  80.923   6.952  1.00 35.98    -0.348 OA
BRANCH   7   8
HETATM    8  C1  SGN C   3      23.390  79.614   7.444  1.00 35.40     0.287 C 
HETATM    9  C2  SGN C   3      22.555  79.463   8.727  1.00 33.71     0.182 C 
HETATM   10  C3  SGN C   3      23.198  80.167   9.928  1.00 35.79     0.178 C 
HETATM   11  C4  SGN C   3      24.699  79.851  10.043  1.00 36.62     0.186 C 
HETATM   12  C5  SGN C   3      25.380  80.046   8.694  1.00 39.32     0.181 C 
HETATM   13  O5  SGN C   3      24.734  79.241   7.692  1.00 37.58    -0.349 OA
BRANCH   9  14
HETATM   14  N2  SGN C   3      21.236  80.018   8.514  1.00 29.28    -0.289 N 
ATOM     15  H2  SGN C   3      21.114  80.974   8.183  1.00  0.00     0.175 HD
BRANCH  14  16
HETATM   16  S1  SGN C   3      19.937  79.047   8.827  1.00 27.84     0.205 S 
HETATM   17  O1S SGN C   3      18.796  79.795   8.332  1.00 27.65    -0.578 OA
HETATM   18  O2S SGN C   3      19.919  78.882  10.310  1.00 27.72    -0.578 OA
HETATM   19  O3S SGN C   3      20.111  77.739   8.119  1.00 28.50    -0.578 OA
ENDBRANCH  14  16
ENDBRANCH   9  14
BRANCH  10  20
HETATM   20  O3  SGN C   3      22.524  79.782  11.123  1.00 34.89    -0.391 OA
ATOM     21  H3  SGN C   3      21.714  79.337  10.900  1.00  0.00     0.210 HD
ENDBRANCH  10  20
BRANCH  11  22
HETATM   22  O4  SGN C   3      25.300  80.749  10.993  1.00 37.13    -0.348 OA
BRANCH  22  23
HETATM   23  C1  UAP C   4      25.424  80.253  12.282  1.00 39.64     0.294 C 
HETATM   24  C2  UAP C   4      26.805  80.563  12.830  1.00 38.70     0.228 C 
HETATM   25  C3  UAP C   4      26.975  79.934  14.209  1.00 38.51     0.156 C 
HETATM   26  C4  UAP C   4      25.689  80.076  15.148  1.00 38.14     0.077 C 
HETATM   27  C5  UAP C   4      24.539  80.550  14.500  1.00 38.51     0.228 C 
HETATM   28  O5  UAP C   4      24.448  80.898  13.089  1.00 37.46    -0.343 OA
BRANCH  24  29
HETATM   29  O2  UAP C   4      27.833  79.988  11.960  1.00 40.54    -0.244 OA
BRANCH  29  30
HETATM   30  S   UAP C   4      29.070  80.868  11.451  1.00 40.49     0.252 S 
HETATM   31  O1S UAP C   4      29.849  80.021  10.536  1.00 40.89    -0.572 OA
HETATM   32  O2S UAP C   4      29.847  81.236  12.644  1.00 37.88    -0.572 OA
HETATM   33  O3S UAP C   4      28.512  82.047  10.770  1.00 37.47    -0.572 OA
ENDBRANCH  29  30
ENDBRANCH  24  29
BRANCH  25  34
HETATM   34  O3  UAP C   4      28.092  80.525  14.853  1.00 38.58    -0.393 OA
ATOM     35  H3  UAP C   4      27.949  80.515  15.792  1.00  0.00     0.210 HD
ENDBRANCH  25  34
BRANCH  27  36
HETATM   36  C6  UAP C   4      23.255  80.786  15.218  1.00 37.96     0.203 C 
HETATM   37  O6A UAP C   4      22.946  80.008  16.142  1.00 40.05    -0.646 OA
HETATM   38  O6B UAP C   4      22.546  81.750  14.860  1.00 36.71    -0.646 OA
ENDBRANCH  27  36
ENDBRANCH  22  23
ENDBRANCH  11  22
BRANCH  12  39
HETATM   39  C6  SGN C   3      26.839  79.680   8.681  1.00 42.65     0.227 C 
BRANCH  39  40
HETATM   40  O6  SGN C   3      26.926  78.449   7.930  1.00 51.09    -0.254 OA
BRANCH  40  41
HETATM   41  S2  SGN C   3      28.273  78.216   7.107  1.00 54.80     0.251 S 
HETATM   42  O4S SGN C   3      27.901  78.054   5.689  1.00 54.99    -0.572 OA
HETATM   43  O5S SGN C   3      28.902  76.980   7.659  1.00 53.99    -0.572 OA
HETATM   44  O6S SGN C   3      29.105  79.393   7.316  1.00 55.43    -0.572 OA
ENDBRANCH  40  41
ENDBRANCH  39  40
ENDBRANCH  12  39
ENDBRANCH   7   8
ENDBRANCH   4   7
BRANCH   3  45
HETATM   45  O3  IDS C   2      24.608  79.669   4.292  1.00 39.65    -0.390 OA
ATOM     46  H3  IDS C   2      24.578  79.901   3.371  1.00  0.00     0.210 HD
ENDBRANCH   3  45
BRANCH   5  47
HETATM   47  C6  IDS C   2      21.092  82.580   6.233  1.00 36.10     0.206 C 
HETATM   48  O6A IDS C   2      21.727  83.656   6.290  1.00 32.44    -0.646 OA
HETATM   49  O6B IDS C   2      20.058  82.339   6.901  1.00 33.44    -0.646 OA
ENDBRANCH   5  47
BRANCH   2  50
HETATM   50  O2  IDS C   2      22.577  78.179   3.094  1.00 43.59    -0.244 OA
BRANCH  50  51
HETATM   51  S   IDS C   2      23.006  78.128   1.557  1.00 44.11     0.252 S 
HETATM   52  O1S IDS C   2      22.303  79.266   0.872  1.00 44.48    -0.572 OA
HETATM   53  O2S IDS C   2      22.581  76.814   1.032  1.00 44.29    -0.572 OA
HETATM   54  O3S IDS C   2      24.449  78.283   1.517  1.00 44.74    -0.572 OA
ENDBRANCH  50  51
ENDBRANCH   2  50
BRANCH   1  55
HETATM   55  O4  SGN C   1      19.967  79.825   3.262  1.00 44.73    -0.348 OA
BRANCH  55  56
HETATM   56  C4  SGN C   1      18.589  79.412   3.396  1.00 48.25     0.186 C 
HETATM   57  C3  SGN C   1      17.695  80.643   3.586  1.00 48.43     0.178 C 
HETATM   58  C2  SGN C   1      16.224  80.230   3.572  1.00 48.58     0.181 C 
HETATM   59  C1  SGN C   1      15.881  79.416   2.326  1.00 50.40     0.283 C 
HETATM   60  O5  SGN C   1      16.755  78.286   2.220  1.00 50.82    -0.349 OA
HETATM   61  C5  SGN C   1      18.150  78.657   2.130  1.00 51.58     0.181 C 
BRANCH  57  62
HETATM   62  O3  SGN C   1      17.994  81.272   4.822  1.00 46.09    -0.391 OA
ATOM     63  H3  SGN C   1      18.659  81.937   4.684  1.00  0.00     0.210 HD
ENDBRANCH  57  62
BRANCH  58  64
HETATM   64  N2  SGN C   1      15.370  81.398   3.641  1.00 48.56    -0.289 N 
ATOM     65  H2  SGN C   1      15.334  82.099   2.900  1.00  0.00     0.175 HD
BRANCH  64  66
HETATM   66  S1  SGN C   1      14.459  81.504   5.017  1.00 47.67     0.205 S 
HETATM   67  O1S SGN C   1      13.567  80.324   5.029  1.00 47.59    -0.578 OA
HETATM   68  O2S SGN C   1      13.718  82.764   4.899  1.00 48.55    -0.578 OA
HETATM   69  O3S SGN C   1      15.406  81.508   6.153  1.00 47.08    -0.578 OA
ENDBRANCH  64  66
ENDBRANCH  58  64
BRANCH  59  70
HETATM   70  O1  SGN C   1      16.031  80.201   1.193  1.00 51.36    -0.369 OA
ATOM     71  H1  SGN C   1      15.315  80.823   1.133  1.00  0.00     0.212 HD
ENDBRANCH  59  70
BRANCH  61  72
HETATM   72  C6  SGN C   1      18.923  77.379   1.918  1.00 55.48     0.227 C 
BRANCH  72  73
HETATM   73  O6  SGN C   1      18.723  76.500   3.046  1.00 61.59    -0.254 OA
BRANCH  73  74
HETATM   74  S2  SGN C   1      19.541  75.134   2.993  1.00 65.98     0.251 S 
HETATM   75  O4S SGN C   1      20.945  75.427   3.528  1.00 65.09    -0.572 OA
HETATM   76  O5S SGN C   1      19.569  74.722   1.601  1.00 65.58    -0.572 OA
HETATM   77  O6S SGN C   1      18.780  74.106   3.888  1.00 65.84    -0.572 OA
ENDBRANCH  73  74
ENDBRANCH  72  73
ENDBRANCH  61  72
ENDBRANCH  55  56
ENDBRANCH   1  55
TORSDOF 27
ENDMDL
MODEL 100
REMARK VINA RESULT:      -4.7      7.990     14.218
REMARK  27 active torsions:
REMARK  status: ('A' for Active; 'I' for Inactive)
REMARK    1  A    between atoms: C1_1  and  O1_2 
REMARK    2  A    between atoms: S1_5  and  N2_7 
REMARK    3  A    between atoms: C2_6  and  N2_7 
REMARK    4  A    between atoms: S2_10  and  O6_22 
REMARK    5  A    between atoms: C3_11  and  O3_12 
REMARK    6  A    between atoms: C4_15  and  O4_16 
REMARK    7  A    between atoms: O4_16  and  C1_24 
REMARK    8  A    between atoms: C5_18  and  C6_21 
REMARK    9  A    between atoms: C6_21  and  O6_22 
REMARK   10  A    between atoms: C2_26  and  O2_27 
REMARK   11  A    between atoms: O2_27  and  S_40 
REMARK   12  A    between atoms: C3_29  and  O3_30 
REMARK   13  A    between atoms: C4_33  and  O4_34 
REMARK   14  A    between atoms: O4_34  and  C1_41 
REMARK   15  A    between atoms: C5_35  and  C6_37 
REMARK   16  A    between atoms: S1_43  and  N2_45 
REMARK   17  A    between atoms: C2_44  and  N2_45 
REMARK   18  A    between atoms: S2_48  and  O6_60 
REMARK   19  A    between atoms: C3_49  and  O3_50 
REMARK   20  A    between atoms: C4_53  and  O4_54 
REMARK   21  A    between atoms: O4_54  and  C1_62 
REMARK   22  A    between atoms: C5_56  and  C6_59 
REMARK   23  A    between atoms: C6_59  and  O6_60 
REMARK   24  A    between atoms: C2_64  and  O2_65 
REMARK   25  A    between atoms: O2_65  and  S_77 
REMARK   26  A    between atoms: C3_67  and  O3_68 
REMARK   27  A    between atoms: C5_72  and  C6_74 
ROOT
HETATM    1  C1  IDS C   2      33.190  69.455  17.738  1.00 40.81     0.294 C 
HETATM    2  C2  IDS C   2      33.458  70.952  17.912  1.00 40.20     0.231 C 
HETATM    3  C3  IDS C   2      32.953  71.744  16.709  1.00 39.01     0.185 C 
HETATM    4  C4  IDS C   2      33.653  71.286  15.413  1.00 37.65     0.195 C 
HETATM    5  C5  IDS C   2      34.231  69.878  15.603  1.00 35.99     0.257 C 
HETATM    6  O5  IDS C   2      33.297  69.064  16.351  1.00 39.00    -0.340 OA
ENDROOT
BRANCH   4   7
HETATM    7  O4  IDS C   2      32.706  71.291  14.316  1.00 35.98    -0.348 OA
BRANCH   7   8
HETATM    8  C1  SGN C   3      32.965  72.201  13.282  1.00 35.40     0.287 C 
HETATM    9  C2  SGN C   3      31.668  72.920  12.872  1.00 33.71     0.182 C 
HETATM   10  C3  SGN C   3      30.719  72.007  12.086  1.00 35.79     0.178 C 
HETATM   11  C4  SGN C   3      31.454  71.231  10.979  1.00 36.62     0.186 C 
HETATM   12  C5  SGN C   3      32.712  70.582  11.542  1.00 39.32     0.181 C 
HETATM   13  O5  SGN C   3      33.551  71.578  12.153  1.00 37.58    -0.349 OA
BRANCH   9  14
HETATM   14  N2  SGN C   3      30.984  73.394  14.055  1.00 29.28    -0.289 N 
ATOM     15  H2  SGN C   3      30.751  72.761  14.819  1.00  0.00     0.175 HD
BRANCH  14  16
HETATM   16  S1  SGN C   3      30.593  74.998  14.123  1.00 27.84     0.205 S 
HETATM   17  O1S SGN C   3      29.299  75.085  13.471  1.00 27.65    -0.578 OA
HETATM   18  O2S SGN C   3      31.670  75.697  13.362  1.00 27.72    -0.578 OA
HETATM   19  O3S SGN C   3      30.541  75.437  15.553  1.00 28.50    -0.578 OA
ENDBRANCH  14  16
ENDBRANCH   9  14
BRANCH  10  20
HETATM   20  O3  SGN C   3      29.668  72.787  11.521  1.00 34.89    -0.391 OA
ATOM     21  H3  SGN C   3      29.842  72.932  10.599  1.00  0.00     0.210 HD
ENDBRANCH  10  20
BRANCH  11  22
HETATM   22  O4  SGN C   3      30.591  70.196  10.476  1.00 37.13    -0.348 OA
BRANCH  22  23
HETATM   23  C1  UAP C   4      30.277  70.288   9.129  1.00 39.64     0.294 C 
HETATM   24  C2  UAP C   4      29.348  69.156   8.730  1.00 38.70     0.228 C 
HETATM   25  C3  UAP C   4      29.081  69.201   7.228  1.00 38.51     0.156 C 
HETATM   26  C4  UAP C   4      28.839  70.675   6.658  1.00 38.14     0.077 C 
HETATM   27  C5  UAP C   4      29.126  71.708   7.563  1.00 38.51     0.228 C 
HETATM   28  O5  UAP C   4      29.613  71.528   8.923  1.00 37.46    -0.343 OA
BRANCH  24  29
HETATM   29  O2  UAP C   4      29.975  67.865   9.022  1.00 40.54    -0.244 OA
BRANCH  29  30
HETATM   30  S   UAP C   4      29.221  66.763   9.905  1.00 40.49     0.252 S 
HETATM   31  O1S UAP C   4      27.798  66.822   9.540  1.00 40.89    -0.572 OA
HETATM   32  O2S UAP C   4      29.436  67.128  11.313  1.00 37.88    -0.572 OA
HETATM   33  O3S UAP C   4      29.820  65.460   9.574  1.00 37.47    -0.572 OA
ENDBRANCH  29  30
ENDBRANCH  24  29
BRANCH  25  34
HETATM   34  O3  UAP C   4      27.952  68.394   6.935  1.00 38.58    -0.393 OA
ATOM     35  H3  UAP C   4      27.162  68.894   7.106  1.00  0.00     0.210 HD
ENDBRANCH  25  34
BRANCH  27  36
HETATM   36  C6  UAP C   4      28.924  73.145   7.226  1.00 37.96     0.203 C 
HETATM   37  O6A UAP C   4      28.350  73.424   6.155  1.00 40.05    -0.646 OA
HETATM   38  O6B UAP C   4      29.341  74.005   8.031  1.00 36.71    -0.646 OA
ENDBRANCH  27  36
ENDBRANCH  22  23
ENDBRANCH  11  22
BRANCH  12  39
HETATM   39  C6  SGN C   3      33.548  69.867  10.518  1.00 42.65     0.227 C 
BRANCH  39  40
HETATM   40  O6  SGN C   3      34.278  70.899   9.820  1.00 51.09    -0.254 OA
BRANCH  40  41
HETATM   41  S2  SGN C   3      34.163  70.895   8.228  1.00 54.80     0.251 S 
HETATM   42  O4S SGN C   3      33.802  69.527   7.815  1.00 54.99    -0.572 OA
HETATM   43  O5S SGN C   3      35.502  71.298   7.703  1.00 53.99    -0.572 OA
HETATM   44  O6S SGN C   3      33.126  71.856   7.877  1.00 55.43    -0.572 OA
ENDBRANCH  40  41
ENDBRANCH  39  40
ENDBRANCH  12  39
ENDBRANCH   7   8
ENDBRANCH   4   7
BRANCH   3  45
HETATM   45  O3  IDS C   2      33.187  73.129  16.921  1.00 39.65    -0.390 OA
ATOM     46  H3  IDS C   2      34.070  73.346  16.648  1.00  0.00     0.210 HD
ENDBRANCH   3  45
BRANCH   5  47
HETATM   47  C6  IDS C   2      34.564  69.141  14.313  1.00 36.10     0.206 C 
HETATM   48  O6A IDS C   2      33.800  68.215  13.961  1.00 32.44    -0.646 OA
HETATM   49  O6B IDS C   2      35.572  69.505  13.661  1.00 33.44    -0.646 OA
ENDBRANCH   5  47
BRANCH   2  50
HETATM   50  O2  IDS C   2      32.768  71.439  19.100  1.00 43.59    -0.244 OA
BRANCH  50  51
HETATM   51  S   IDS C   2      33.416  72.616  19.961  1.00 44.11     0.252 S 
HETATM   52  O1S IDS C   2      34.816  72.810  19.449  1.00 44.48    -0.572 OA
HETATM   53  O2S IDS C   2      33.395  72.183  21.374  1.00 44.29    -0.572 OA
HETATM   54  O3S IDS C   2      32.596  73.795  19.748  1.00 44.74    -0.572 OA
ENDBRANCH  50  51
ENDBRANCH   2  50
BRANCH   1  55
HETATM   55  O4  SGN C   1      34.117  68.731  18.474  1.00 44.73    -0.348 OA
BRANCH  55  56
HETATM   56  C4  SGN C   1      34.833  69.425  19.519  1.00 48.25     0.186 C 
HETATM   57  C3  SGN C   1      34.411  68.878  20.888  1.00 48.43     0.178 C 
HETATM   58  C2  SGN C   1      35.274  69.495  21.988  1.00 48.58     0.181 C 
HETATM   59  C1  SGN C   1      36.764  69.322  21.697  1.00 50.40     0.283 C 
HETATM   60  O5  SGN C   1      37.079  69.857  20.405  1.00 50.82    -0.349 OA
HETATM   61  C5  SGN C   1      36.346  69.219  19.334  1.00 51.58     0.181 C 
BRANCH  57  62
HETATM   62  O3  SGN C   1      33.048  69.186  21.133  1.00 46.09    -0.391 OA
ATOM     63  H3  SGN C   1      32.513  68.427  20.931  1.00  0.00     0.210 HD
ENDBRANCH  57  62
BRANCH  58  64
HETATM   64  N2  SGN C   1      34.958  68.903  23.271  1.00 48.56    -0.289 N 
ATOM     65  H2  SGN C   1      34.650  67.936  23.371  1.00  0.00     0.175 HD
BRANCH  64  66
HETATM   66  S1  SGN C   1      35.135  69.924  24.562  1.00 47.67     0.205 S 
HETATM   67  O1S SGN C   1      36.122  70.949  24.160  1.00 47.59    -0.578 OA
HETATM   68  O2S SGN C   1      35.617  69.082  25.661  1.00 48.55    -0.578 OA
HETATM   69  O3S SGN C   1      33.799  70.500  24.832  1.00 47.08    -0.578 OA
ENDBRANCH  64  66
ENDBRANCH  58  64
BRANCH  59  70
HETATM   70  O1  SGN C   1      37.094  67.975  21.711  1.00 51.36    -0.369 OA
ATOM     71  H1  SGN C   1      37.904  67.836  21.234  1.00  0.00     0.212 HD
ENDBRANCH  59  70
BRANCH  61  72
HETATM   72  C6  SGN C   1      36.861  69.811  18.046  1.00 55.48     0.227 C 
BRANCH  72  73
HETATM   73  O6  SGN C   1      37.740  70.918  18.341  1.00 61.59    -0.254 OA
BRANCH  73  74
HETATM   74  S2  SGN C   1      38.075  71.864  17.103  1.00 65.98     0.251 S 
HETATM   75  O4S SGN C   1      39.599  71.969  17.015  1.00 65.09    -0.572 OA
HETATM   76  O5S SGN C   1      37.460  73.148  17.386  1.00 65.58    -0.572 OA
HETATM   77  O6S SGN C   1      37.463  71.194  15.833  1.00 65.84    -0.572 OA
ENDBRANCH  73  74
ENDBRANCH  72  73
ENDBRANCH  61  72
ENDBRANCH  55  56
ENDBRANCH   1  55
TORSDOF 27
ENDMDL
